

=======================================================================
=======================================================================
                       SU2 - INITIAL SOLUTION



MPI - REPORT BINDINGS:
[minion09:16693] MCW rank 1 bound to socket 1[core 6[hwt 0-1]]: [../../../../../..][BB/../../../../..]
[minion09:16693] MCW rank 2 bound to socket 0[core 1[hwt 0-1]]: [../BB/../../../..][../../../../../..]
[minion09:16693] MCW rank 3 bound to socket 1[core 7[hwt 0-1]]: [../../../../../..][../BB/../../../..]
[minion09:16693] MCW rank 4 bound to socket 0[core 2[hwt 0-1]]: [../../BB/../../..][../../../../../..]
[minion09:16693] MCW rank 5 bound to socket 1[core 8[hwt 0-1]]: [../../../../../..][../../BB/../../..]
[minion09:16693] MCW rank 6 bound to socket 0[core 3[hwt 0-1]]: [../../../BB/../..][../../../../../..]
[minion09:16693] MCW rank 7 bound to socket 1[core 9[hwt 0-1]]: [../../../../../..][../../../BB/../..]
[minion09:16693] MCW rank 8 bound to socket 0[core 4[hwt 0-1]]: [../../../../BB/..][../../../../../..]
[minion09:16693] MCW rank 9 bound to socket 1[core 10[hwt 0-1]]: [../../../../../..][../../../../BB/..]
[minion09:16693] MCW rank 10 bound to socket 0[core 5[hwt 0-1]]: [../../../../../BB][../../../../../..]
[minion09:16693] MCW rank 11 bound to socket 1[core 11[hwt 0-1]]: [../../../../../..][../../../../../BB]
[minion09:16693] MCW rank 0 bound to socket 0[core 0[hwt 0-1]]: [BB/../../../../..][../../../../../..]

-------------------------------------------------------------------------
|    ___ _   _ ___                                                      |
|   / __| | | |_  )   Release 7.1.0 "Blackbird"                         |
|   \__ \ |_| |/ /                                                      |
|   |___/\___//___|   Suite (Computational Fluid Dynamics Code)         |
|                                                                       |
-------------------------------------------------------------------------
| SU2 Project Website: https://su2code.github.io                        |
|                                                                       |
| The SU2 Project is maintained by the SU2 Foundation                   |
| (http://su2foundation.org)                                            |
-------------------------------------------------------------------------
| Copyright 2012-2020, SU2 Contributors                                 |
|                                                                       |
| SU2 is free software; you can redistribute it and/or                  |
| modify it under the terms of the GNU Lesser General Public            |
| License as published by the Free Software Foundation; either          |
| version 2.1 of the License, or (at your option) any later version.    |
|                                                                       |
| SU2 is distributed in the hope that it will be useful,                |
| but WITHOUT ANY WARRANTY; without even the implied warranty of        |
| MERCHANTABILITY or FITNESS FOR A PARTICULAR PURPOSE. See the GNU      |
| Lesser General Public License for more details.                       |
|                                                                       |
| You should have received a copy of the GNU Lesser General Public      |
| License along with SU2. If not, see <http://www.gnu.org/licenses/>.   |
-------------------------------------------------------------------------

Parsing config file for zone 0

----------------- Physical Case Definition ( Zone 0 ) -------------------
Compressible RANS equations.
Turbulence model: Spalart Allmaras
Hybrid RANS/LES: No Hybrid RANS/LES
Mach number: 1e-09.
Angle of attack (AoA): 0 deg, and angle of sideslip (AoS): 0 deg.
Reynolds number: 0. Reference length 1.
No restart solution, use the values at infinity (freestream).
Dimensional simulation.
The reference area is 1 m^2.
The semi-span will be computed using the max y(3D) value.
The reference length is 1 m.
Reference origin for moment evaluation is (0, 0, 0).
Surface(s) where the force coefficients are evaluated: 4.

Surface(s) plotted in the output file: 4.
Surface(s) to be analyzed in detail: 4.
Input mesh file name: admesh.INL.su2

--------------- Space Numerical Integration ( Zone 0 ) ------------------
Roe (with entropy fix = 1) solver for the flow inviscid terms.
Standard Roe without low-dissipation function.
First order integration in space.
Scalar upwind solver for the turbulence model.
First order integration in space.
Average of gradients with correction (viscous flow terms).
Average of gradients with correction (viscous turbulence terms).
Gradient for upwind reconstruction: unweighted Least-Squares.
Gradient for viscous and source terms: Green-Gauss.

--------------- Time Numerical Integration  ( Zone 0 ) ------------------
Local time stepping (steady state simulation).
Euler implicit method for the flow equations.
FGMRES is used for solving the linear system.
Using a ILU(0) preconditioning.
Convergence criteria of the linear solver: 1e-06.
Max number of linear iterations: 20.
CFL adaptation. Factor down: 0.5, factor up: 1.25,
                lower limit: 0.1, upper limit: 10,
                acceptable linear residual: 0.001.
Courant-Friedrichs-Lewy number:        1
Euler implicit time integration for the turbulence model.

------------------ Convergence Criteria  ( Zone 0 ) ---------------------
Maximum number of solver subiterations: 10000.
Begin convergence monitoring at iteration 10.
Residual minimum value: 1e-20.
Cauchy series min. value: 1e-10.
Number of Cauchy elements: 100.
Begin windowed time average at iteration 0.

-------------------- Output Information ( Zone 0 ) ----------------------
Writing solution files every 1000 iterations.
Writing the convergence history file every 1 inner iterations.
Writing the screen convergence history every 50 inner iterations.
The tabular file format is CSV (.csv).
Convergence history file name: history_2nd.
Forces breakdown file name: forces_breakdown.dat.
Surface file name: surface_flow.
Volume file name: flow.
Restart file name: solution.dat.

------------- Config File Boundary Information ( Zone 0 ) ---------------
+-----------------------------------------------------------------------+
|                        Marker Type|                        Marker Name|
+-----------------------------------------------------------------------+
|                     Symmetry plane|                                  6|
+-----------------------------------------------------------------------+
|                   Riemann boundary|                                  1|
|                                   |                                  4|
|                                   |                                  5|
+-----------------------------------------------------------------------+
|                     Heat flux wall|                                  2|
|                                   |                                  3|
+-----------------------------------------------------------------------+

-------------------- Output Preprocessing ( Zone 0 ) --------------------
Screen output fields: INNER_ITER, RMS_DENSITY, NONPHYSICAL_POINTS, LINSOL_ITER, LINSOL_RESIDUAL, SURFACE_MACH, SURFACE_STATIC_PRESSURE
History output group(s): ITER, RMS_RES
Convergence field(s): RMS_DENSITY
Warning: No (valid) fields chosen for time convergence monitoring. Time convergence monitoring inactive.
Volume output fields: COORDINATES, SOLUTION, PRIMITIVE

------------------- Geometry Preprocessing ( Zone 0 ) -------------------
Two dimensional problem.
1580 grid points before partitioning.
2869 volume elements before partitioning.
6 surface markers.
36 boundary elements in index 0 (Marker = 1).
50 boundary elements in index 1 (Marker = 2).
35 boundary elements in index 2 (Marker = 3).
53 boundary elements in index 3 (Marker = 4).
10 boundary elements in index 4 (Marker = 5).
70 boundary elements in index 5 (Marker = 6).
Executing the partitioning functions.
Building the graph adjacency structure.
Calling ParMETIS... graph partitioning complete (304 edge cuts).
Distributing ParMETIS coloring.
Rebalancing vertices.
Rebalancing volume element connectivity.
Rebalancing markers and surface elements.
1902 vertices including ghost points. 
3167 interior elements including halo cells. 
3130 triangles.
37 quadrilaterals.
Establishing MPI communication patterns.
Setting point connectivity.
Renumbering points (Reverse Cuthill McKee Ordering).
Recomputing point connectivity.
Setting element connectivity.
Checking the numerical grid orientation.
All volume elements are correctly orientend.
There has been a re-orientation of 271 LINE surface elements.
Identifying edges and vertices.
Setting the control volume structure.
Area of the computational grid: 45034.
Searching for the closest normal neighbors to the surfaces.
Storing a mapping from global to local point index.
Compute the surface curvature.
Max K: 1.40397. Mean K: 0.032253. Standard deviation K: 0.177905.
Checking for periodicity.
Computing mesh quality statistics for the dual control volumes.
+--------------------------------------------------------------+
|           Mesh Quality Metric|        Minimum|        Maximum|
+--------------------------------------------------------------+
|    Orthogonality Angle (deg.)|        50.1556|        89.9567|
|     CV Face Area Aspect Ratio|        1.01003|        19.7602|
|           CV Sub-Volume Ratio|              1|        24.1967|
+--------------------------------------------------------------+
Finding max control volume width.
Communicating number of neighbors.
Wetted area = 0 m.
Area projection in the x-plane = 0 m, y-plane = 0 m.
Max. coordinate in the x-direction = -1e+10 m, y-direction = -1e+10 m.
Min. coordinate in the x-direction = 1e+10 m, y-direction = 1e+10 m.
Checking if Euler & Symmetry markers are straight/plane:
Boundary marker 6 is a single straight.
Computing wall distances.

-------------------- Solver Preprocessing ( Zone 0 ) --------------------
Viscous flow: Computing pressure using the ideal gas law
based on the free-stream temperature and a density computed
from the Reynolds number.
Force coefficients computed using free-stream values.

-- Models:
+------------------------------------------------------------------------------+
|          Viscosity Model|        Conductivity Model|              Fluid Model|
+------------------------------------------------------------------------------+
|               SUTHERLAND|          CONSTANT_PRANDTL|                   VW_GAS|
+------------------------------------------------------------------------------+
-- Fluid properties:
+------------------------------------------------------------------------------+
|                  Name|    Dim. value|    Ref. value|      Unit|Non-dim. value|
+------------------------------------------------------------------------------+
|        Ref. Viscosity|     1.716e-05|             1|   N.s/m^2|     1.716e-05|
|      Sutherland Temp.|        273.15|             1|         K|        273.15|
|     Sutherland Const.|         110.4|             1|         K|         110.4|
+------------------------------------------------------------------------------+
|        Prandtl (Lam.)|             -|             -|         -|          0.72|
|       Prandtl (Turb.)|             -|             -|         -|           0.9|
+------------------------------------------------------------------------------+
|          Gas Constant|          51.3|             1|  N.m/kg.K|          51.3|
|      Spec. Heat Ratio|             -|             -|         -|           1.1|
|     Critical Pressure|     1.939e+06|             1|          |     1.939e+06|
|  Critical Temperature|        518.75|             1|         K|        518.75|
+------------------------------------------------------------------------------+
-- Initial and free-stream conditions:
+------------------------------------------------------------------------------+
|                  Name|    Dim. value|    Ref. value|      Unit|Non-dim. value|
+------------------------------------------------------------------------------+
|       Static Pressure|        320000|             1|        Pa|        320000|
|               Density|       26.6086|             1|    kg/m^3|       26.6086|
|           Temperature|           300|             1|         K|           300|
|          Total Energy|        149800|      0.999999|   m^2/s^2|        149800|
|            Velocity-X|   1.01918e-07|             1|       m/s|   1.01918e-07|
|            Velocity-Y|             0|             1|       m/s|             0|
|    Velocity Magnitude|   1.01918e-07|             1|       m/s|   1.01918e-07|
+------------------------------------------------------------------------------+
|             Viscosity|   1.84592e-05|             1|   N.s/m^2|   1.84592e-05|
|          Conductivity|             -|             1|   W/m^2.K|             -|
|     Turb. Kin. Energy|   3.89525e-17|             1|   m^2/s^2|   3.89525e-17|
|     Spec. Dissipation|   5.61494e-12|             1|       1/s|   5.61494e-12|
+------------------------------------------------------------------------------+
|           Mach Number|             -|             -|         -|         1e-09|
|       Reynolds Number|             -|             -|         -|             0|
+------------------------------------------------------------------------------+
Initialize Jacobian structure (Navier-Stokes). MG level: 0.
Initialize Jacobian structure (SA model).

------------------- Numerics Preprocessing ( Zone 0 ) -------------------

----------------- Integration Preprocessing ( Zone 0 ) ------------------

------------------- Iteration Preprocessing ( Zone 0 ) ------------------
Euler/Navier-Stokes/RANS fluid iteration.

------------------------------ Begin Solver -----------------------------

Simulation Run using the Single-zone Driver
+------------------------------------------------------------------------------------------+
|  Inner_Iter|    rms[Rho]|Nonphysical_|Linear_Solve|   LinSolRes|    Avg_Mach|   Avg_Press|
+------------------------------------------------------------------------------------------+
|           0|    3.105044|           0|           5|   -6.411302|  9.0826e-07  9.0826e-07|  3.2000e+05  3.2000e+05|
Warning Newton-Raphson exceed number of max iteration in PT
Compressibility factor  0.161427 would be substituted with 0.484458
Warning Newton-Raphson exceed number of max iteration in PT
Compressibility factor  0.641888 would be substituted with 0.458494
Warning Newton-Raphson exceed number of max iteration in PT
Compressibility factor  0.266475 would be substituted with 0.410085
Warning Newton-Raphson exceed number of max iteration in PT
Compressibility factor  0.266475 would be substituted with 0.410085
Warning Newton-Raphson exceed number of max iteration in PT
Compressibility factor  0.266475 would be substituted with 0.410085
Warning Newton-Raphson exceed number of max iteration in PT
Compressibility factor  0.266475 would be substituted with 0.410085
Warning Newton-Raphson exceed number of max iteration in PT
Compressibility factor  0.266475 would be substituted with 0.410085
Warning Newton-Raphson exceed number of max iteration in PT
Compressibility factor  0.266475 would be substituted with 0.410085
Warning Newton-Raphson exceed number of max iteration in PT
Compressibility factor  0.266475 would be substituted with 0.410085
Warning Newton-Raphson exceed number of max iteration in PT
Compressibility factor  0.266475 would be substituted with 0.410085
Warning Newton-Raphson exceed number of max iteration in PT
Compressibility factor  0.266475 would be substituted with 0.410085
Warning Newton-Raphson exceed number of max iteration in PT
Compressibility factor  0.266475 would be substituted with 0.410085
Warning Newton-Raphson exceed number of max iteration in PT
Compressibility factor  0.266475 would be substituted with 0.410085
Warning Newton-Raphson exceed number of max iteration in PT
Compressibility factor  0.266475 would be substituted with 0.410085
Warning Newton-Raphson exceed number of max iteration in PT
Compressibility factor  0.266475 would be substituted with 0.410085
Warning Newton-Raphson exceed number of max iteration in PT
Compressibility factor  0.266475 would be substituted with 0.410085
Warning Newton-Raphson exceed number of max iteration in PT
Compressibility factor  0.266475 would be substituted with 0.410085
Warning Newton-Raphson exceed number of max iteration in PT
Compressibility factor  0.266475 would be substituted with 0.410085
Warning Newton-Raphson exceed number of max iteration in PT
Compressibility factor  0.266475 would be substituted with 0.410085
Warning Newton-Raphson exceed number of max iteration in PT
Compressibility factor  0.266475 would be substituted with 0.410085
Warning Newton-Raphson exceed number of max iteration in PT
Compressibility factor  0.266475 would be substituted with 0.410085
Warning Newton-Raphson exceed number of max iteration in PT
Compressibility factor  0.266475 would be substituted with 0.410085
Warning Newton-Raphson exceed number of max iteration in PT
Compressibility factor  0.266475 would be substituted with 0.410085
Warning Newton-Raphson exceed number of max iteration in PT
Compressibility factor  0.266475 would be substituted with 0.410085
Warning Newton-Raphson exceed number of max iteration in PT
Compressibility factor  0.266475 would be substituted with 0.410085
Warning Newton-Raphson exceed number of max iteration in PT
Compressibility factor  0.266475 would be substituted with 0.410085
Warning Newton-Raphson exceed number of max iteration in PT
Compressibility factor  0.266475 would be substituted with 0.410085
Warning Newton-Raphson exceed number of max iteration in PT
Compressibility factor  0.266475 would be substituted with 0.410085
Warning Newton-Raphson exceed number of max iteration in PT
Compressibility factor  0.266475 would be substituted with 0.410085
Warning Newton-Raphson exceed number of max iteration in PT
Compressibility factor  0.641488 would be substituted with 0.485138
Warning Newton-Raphson exceed number of max iteration in PT
Compressibility factor  0.266475 would be substituted with 0.410085
Warning Newton-Raphson exceed number of max iteration in PT
Compressibility factor  0.170474 would be substituted with 0.447878
Warning Newton-Raphson exceed number of max iteration in PT
Compressibility factor  0.266475 would be substituted with 0.410085
Warning Newton-Raphson exceed number of max iteration in PT
Compressibility factor  0.248449 would be substituted with 0.416964
Warning Newton-Raphson exceed number of max iteration in PT
Compressibility factor  0.266475 would be substituted with 0.410085
Warning Newton-Raphson exceed number of max iteration in PT
Compressibility factor  0.360433 would be substituted with 0.392587
Warning Newton-Raphson exceed number of max iteration in PT
Compressibility factor  0.266475 would be substituted with 0.410085
Warning Newton-Raphson exceed number of max iteration in PT
Compressibility factor  1.12826 would be substituted with 0.489881
Warning Newton-Raphson exceed number of max iteration in PT
Compressibility factor  0.266475 would be substituted with 0.410085
Warning Newton-Raphson exceed number of max iteration in PT
Compressibility factor  0.784733 would be substituted with 0.472107
Warning Newton-Raphson exceed number of max iteration in PT
Compressibility factor  0.64182 would be substituted with 0.379125
Warning Newton-Raphson exceed number of max iteration in PT
Compressibility factor  0.266475 would be substituted with 0.410085
Warning Newton-Raphson exceed number of max iteration in PT
Compressibility factor  0.641739 would be substituted with 0.458377
Warning Newton-Raphson exceed number of max iteration in PT
Compressibility factor  0.23645 would be substituted with 0.360851
Warning Newton-Raphson exceed number of max iteration in PT
Compressibility factor  0.266475 would be substituted with 0.410085
Warning Newton-Raphson exceed number of max iteration in PT
Compressibility factor  0.641837 would be substituted with 0.362023
Warning Newton-Raphson exceed number of max iteration in PT
Compressibility factor  0.266475 would be substituted with 0.410085
Warning Newton-Raphson exceed number of max iteration in PT
Compressibility factor  3.78226 would be substituted with 0.459519
Warning Newton-Raphson exceed number of max iteration in PT
Compressibility factor  0.187639 would be substituted with 0.362928
Warning Newton-Raphson exceed number of max iteration in PT
Compressibility factor  0.266475 would be substituted with 0.410085
Warning Newton-Raphson exceed number of max iteration in PT
Compressibility factor  -0.138399 would be substituted with 0.449571
Warning Newton-Raphson exceed number of max iteration in PT
Compressibility factor  0.241239 would be substituted with 0.362756
Warning Newton-Raphson exceed number of max iteration in PT
Compressibility factor  0.266475 would be substituted with 0.410085
Warning Newton-Raphson exceed number of max iteration in PT
Compressibility factor  -1.47639 would be substituted with 0.447407
Warning Newton-Raphson exceed number of max iteration in PT
Compressibility factor  -0.287319 would be substituted with 0.362006
Warning Newton-Raphson exceed number of max iteration in PT
Compressibility factor  0.266475 would be substituted with 0.410085
Warning Newton-Raphson exceed number of max iteration in PT
Compressibility factor  0.683187 would be substituted with 0.446326
Warning Newton-Raphson exceed number of max iteration in PT
Compressibility factor  0.44608 would be substituted with 0.361002
Warning Newton-Raphson exceed number of max iteration in PT
Compressibility factor  0.266475 would be substituted with 0.410085
Warning Newton-Raphson exceed number of max iteration in PT
Compressibility factor  0.742596 would be substituted with 0.359815
Warning Newton-Raphson exceed number of max iteration in PT
Compressibility factor  0.266475 would be substituted with 0.410085
Warning Newton-Raphson exceed number of max iteration in PT
Compressibility factor  -15.0749 would be substituted with 0.455337
Warning Newton-Raphson exceed number of max iteration in PT
Compressibility factor  0.212102 would be substituted with 0.358768
Warning Newton-Raphson exceed number of max iteration in PT
Compressibility factor  0.266475 would be substituted with 0.410085
Warning Newton-Raphson exceed number of max iteration in PT
Compressibility factor  -0.113267 would be substituted with 0.445418
Warning Newton-Raphson exceed number of max iteration in PT
Compressibility factor  0.64182 would be substituted with 0.357542
Warning Newton-Raphson exceed number of max iteration in PT
Compressibility factor  0.266475 would be substituted with 0.410085
Warning Newton-Raphson exceed number of max iteration in PT
Compressibility factor  0.186778 would be substituted with 0.356286
Warning Newton-Raphson exceed number of max iteration in PT
Compressibility factor  0.266475 would be substituted with 0.410085
|          50|    3.066940|           1|          10|   -6.393053|  1.7765e-01  1.7765e-01|  3.6486e+05  3.6486e+05|
Warning Newton-Raphson exceed number of max iteration in PT
Compressibility factor  -1.69773 would be substituted with 0.446551
Warning Newton-Raphson exceed number of max iteration in PT
Compressibility factor  0.266475 would be substituted with 0.410085
Warning Newton-Raphson exceed number of max iteration in PT
Compressibility factor  0.656716 would be substituted with 0.443078
Warning Newton-Raphson exceed number of max iteration in PT
Compressibility factor  0.0753401 would be substituted with 0.365757
Warning Newton-Raphson exceed number of max iteration in PT
Compressibility factor  0.266475 would be substituted with 0.410085
Warning Newton-Raphson exceed number of max iteration in PT
Compressibility factor  0.258529 would be substituted with 0.353843
Warning Newton-Raphson exceed number of max iteration in PT
Compressibility factor  0.266475 would be substituted with 0.410085
Warning Newton-Raphson exceed number of max iteration in PT
Compressibility factor  0.266475 would be substituted with 0.410085
Warning Newton-Raphson exceed number of max iteration in PT
Compressibility factor  0.64187 would be substituted with 0.455634
Warning Newton-Raphson exceed number of max iteration in PT
Compressibility factor  0.266475 would be substituted with 0.410085
Warning Newton-Raphson exceed number of max iteration in PT
Compressibility factor  0.641836 would be substituted with 0.447047
Warning Newton-Raphson exceed number of max iteration in PT
Compressibility factor  0.64183 would be substituted with 0.358473
Warning Newton-Raphson exceed number of max iteration in PT
Compressibility factor  0.266475 would be substituted with 0.410085
Warning Newton-Raphson exceed number of max iteration in PT
Compressibility factor  -1.15068 would be substituted with 0.43843
Warning Newton-Raphson exceed number of max iteration in PT
Compressibility factor  0.266475 would be substituted with 0.410085
Warning Newton-Raphson exceed number of max iteration in PT
Compressibility factor  0.189202 would be substituted with 0.361107
Warning Newton-Raphson exceed number of max iteration in PT
Compressibility factor  0.266475 would be substituted with 0.410085
Warning Newton-Raphson exceed number of max iteration in PT
Compressibility factor  0.642223 would be substituted with 0.451019
Warning Newton-Raphson exceed number of max iteration in PT
Compressibility factor  0.18844 would be substituted with 0.350303
Warning Newton-Raphson exceed number of max iteration in PT
Compressibility factor  0.266475 would be substituted with 0.410085
Warning Newton-Raphson exceed number of max iteration in PT
Compressibility factor  0.792932 would be substituted with 0.444247
Warning Newton-Raphson exceed number of max iteration in PT
Compressibility factor  0.132927 would be substituted with 0.351335
Warning Newton-Raphson exceed number of max iteration in PT
Compressibility factor  0.266475 would be substituted with 0.410085
Warning Newton-Raphson exceed number of max iteration in PT
Compressibility factor  0.641892 would be substituted with 0.442679
Warning Newton-Raphson exceed number of max iteration in PT
Compressibility factor  0.119332 would be substituted with 0.353122
Warning Newton-Raphson exceed number of max iteration in PT
Compressibility factor  0.266475 would be substituted with 0.410085
Warning Newton-Raphson exceed number of max iteration in PT
Compressibility factor  0.0188244 would be substituted with 0.442798
Warning Newton-Raphson exceed number of max iteration in PT
Compressibility factor  0.198386 would be substituted with 0.355162
Warning Newton-Raphson exceed number of max iteration in PT
Compressibility factor  0.266475 would be substituted with 0.410085
Warning Newton-Raphson exceed number of max iteration in PT
Compressibility factor  0.255468 would be substituted with 0.443854
Warning Newton-Raphson exceed number of max iteration in PT
Compressibility factor  0.266475 would be substituted with 0.410085
Warning Newton-Raphson exceed number of max iteration in PT
Compressibility factor  0.195769 would be substituted with 0.452374
Warning Newton-Raphson exceed number of max iteration in PT
Compressibility factor  0.242846 would be substituted with 0.383643
Warning Newton-Raphson exceed number of max iteration in PT
Compressibility factor  0.266475 would be substituted with 0.410085
Warning Newton-Raphson exceed number of max iteration in PT
Compressibility factor  0.193756 would be substituted with 0.370164
Warning Newton-Raphson exceed number of max iteration in PT
Compressibility factor  0.266475 would be substituted with 0.410085
Warning Newton-Raphson exceed number of max iteration in PT
Compressibility factor  0.643376 would be substituted with 0.468556
Warning Newton-Raphson exceed number of max iteration in PT
Compressibility factor  0.641856 would be substituted with 0.366568
Warning Newton-Raphson exceed number of max iteration in PT
Compressibility factor  0.266475 would be substituted with 0.410085
Warning Newton-Raphson exceed number of max iteration in PT
Compressibility factor  0.173178 would be substituted with 0.461223
Warning Newton-Raphson exceed number of max iteration in PT
Compressibility factor  0.267153 would be substituted with 0.365873
Warning Newton-Raphson exceed number of max iteration in PT
Compressibility factor  0.266475 would be substituted with 0.410085
Warning Newton-Raphson exceed number of max iteration in PT
Compressibility factor  -2.95741 would be substituted with 0.366394
Warning Newton-Raphson exceed number of max iteration in PT
Compressibility factor  0.266475 would be substituted with 0.410085
Warning Newton-Raphson exceed number of max iteration in PT
Compressibility factor  0.266475 would be substituted with 0.410085
Warning Newton-Raphson exceed number of max iteration in PT
Compressibility factor  0.138294 would be substituted with 0.392808
Warning Newton-Raphson exceed number of max iteration in PT
Compressibility factor  0.266475 would be substituted with 0.410085
Warning Newton-Raphson exceed number of max iteration in PT
Compressibility factor  0.191682 would be substituted with 0.481534
Warning Newton-Raphson exceed number of max iteration in PT
Compressibility factor  0.266475 would be substituted with 0.410085
Warning Newton-Raphson exceed number of max iteration in PT
Compressibility factor  0.695923 would be substituted with 0.478014
Warning Newton-Raphson exceed number of max iteration in PT
Compressibility factor  2.17362 would be substituted with 0.393625
Warning Newton-Raphson exceed number of max iteration in PT
Compressibility factor  0.266475 would be substituted with 0.410085
Warning Newton-Raphson exceed number of max iteration in PT
Compressibility factor  0.648387 would be substituted with 0.47427
Warning Newton-Raphson exceed number of max iteration in PT
Compressibility factor  0.641822 would be substituted with 0.379602
Warning Newton-Raphson exceed number of max iteration in PT
Compressibility factor  0.266475 would be substituted with 0.410085
Warning Newton-Raphson exceed number of max iteration in PT
Compressibility factor  0.19884 would be substituted with 0.47037
Warning Newton-Raphson exceed number of max iteration in PT
Compressibility factor  0.266475 would be substituted with 0.410085
Warning Newton-Raphson exceed number of max iteration in PT
Compressibility factor  0.650234 would be substituted with 0.474627
Warning Newton-Raphson exceed number of max iteration in PT
Compressibility factor  -0.156016 would be substituted with 0.398561
Warning Newton-Raphson exceed number of max iteration in PT
Compressibility factor  0.266475 would be substituted with 0.410085
Warning Newton-Raphson exceed number of max iteration in PT
Compressibility factor  0.64182 would be substituted with 0.474757
Warning Newton-Raphson exceed number of max iteration in PT
Compressibility factor  0.954606 would be substituted with 0.384346
Warning Newton-Raphson exceed number of max iteration in PT
Compressibility factor  0.266475 would be substituted with 0.410085
Warning Newton-Raphson exceed number of max iteration in PT
Compressibility factor  0.641902 would be substituted with 0.472743
Warning Newton-Raphson exceed number of max iteration in PT
Compressibility factor  0.641821 would be substituted with 0.379497
Warning Newton-Raphson exceed number of max iteration in PT
Compressibility factor  0.266475 would be substituted with 0.410085
Warning Newton-Raphson exceed number of max iteration in PT
Compressibility factor  0.203999 would be substituted with 0.470695
Warning Newton-Raphson exceed number of max iteration in PT
Compressibility factor  0.266475 would be substituted with 0.410085
Warning Newton-Raphson exceed number of max iteration in PT
Compressibility factor  -0.532339 would be substituted with 0.476189
Warning Newton-Raphson exceed number of max iteration in PT
Compressibility factor  0.266475 would be substituted with 0.410085
Warning Newton-Raphson exceed number of max iteration in PT
Compressibility factor  0.65108 would be substituted with 0.482684
Warning Newton-Raphson exceed number of max iteration in PT
Compressibility factor  0.266475 would be substituted with 0.410085
Warning Newton-Raphson exceed number of max iteration in PT
Compressibility factor  0.113508 would be substituted with 0.487462
Warning Newton-Raphson exceed number of max iteration in PT
Compressibility factor  0.236943 would be substituted with 0.397198
Warning Newton-Raphson exceed number of max iteration in PT
Compressibility factor  0.266475 would be substituted with 0.410085
Warning Newton-Raphson exceed number of max iteration in PT
Compressibility factor  0.646376 would be substituted with 0.483669
Warning Newton-Raphson exceed number of max iteration in PT
Compressibility factor  0.646284 would be substituted with 0.383528
Warning Newton-Raphson exceed number of max iteration in PT
Compressibility factor  0.266475 would be substituted with 0.410085
Warning Newton-Raphson exceed number of max iteration in PT
Compressibility factor  0.486475 would be substituted with 0.478641
Warning Newton-Raphson exceed number of max iteration in PT
Compressibility factor  0.641833 would be substituted with 0.380123
Warning Newton-Raphson exceed number of max iteration in PT
Compressibility factor  0.266475 would be substituted with 0.410085
Warning Newton-Raphson exceed number of max iteration in PT
Compressibility factor  0.165608 would be substituted with 0.474579
Warning Newton-Raphson exceed number of max iteration in PT
Compressibility factor  0.266475 would be substituted with 0.410085
Warning Newton-Raphson exceed number of max iteration in PT
Compressibility factor  0.171243 would be substituted with 0.478659
Warning Newton-Raphson exceed number of max iteration in PT
Compressibility factor  0.266475 would be substituted with 0.410085
Warning Newton-Raphson exceed number of max iteration in PT
Compressibility factor  0.266475 would be substituted with 0.410085
Warning Newton-Raphson exceed number of max iteration in PT
Compressibility factor  0.641828 would be substituted with 0.49979
Warning Newton-Raphson exceed number of max iteration in PT
Compressibility factor  0.179704 would be substituted with 0.395501
Warning Newton-Raphson exceed number of max iteration in PT
Compressibility factor  0.266475 would be substituted with 0.410085
Warning Newton-Raphson exceed number of max iteration in PT
Compressibility factor  1.27882 would be substituted with 0.487494
Warning Newton-Raphson exceed number of max iteration in PT
Compressibility factor  2.39574 would be substituted with 0.381778
Warning Newton-Raphson exceed number of max iteration in PT
Compressibility factor  0.266475 would be substituted with 0.410085
Warning Newton-Raphson exceed number of max iteration in PT
Compressibility factor  0.440071 would be substituted with 0.478785
Warning Newton-Raphson exceed number of max iteration in PT
Compressibility factor  0.266475 would be substituted with 0.410085
Warning Newton-Raphson exceed number of max iteration in PT
Compressibility factor  0.641834 would be substituted with 0.479903
Warning Newton-Raphson exceed number of max iteration in PT
Compressibility factor  0.64188 would be substituted with 0.399771
Warning Newton-Raphson exceed number of max iteration in PT
Compressibility factor  0.266475 would be substituted with 0.410085
Warning Newton-Raphson exceed number of max iteration in PT
Compressibility factor  -0.0459382 would be substituted with 0.477504
Warning Newton-Raphson exceed number of max iteration in PT
Compressibility factor  0.158632 would be substituted with 0.384871
Warning Newton-Raphson exceed number of max iteration in PT
Compressibility factor  0.266475 would be substituted with 0.410085
Warning Newton-Raphson exceed number of max iteration in PT
Compressibility factor  0.161495 would be substituted with 0.473608
Warning Newton-Raphson exceed number of max iteration in PT
Compressibility factor  0.641821 would be substituted with 0.379343
Warning Newton-Raphson exceed number of max iteration in PT
Compressibility factor  0.266475 would be substituted with 0.410085
Warning Newton-Raphson exceed number of max iteration in PT
Compressibility factor  0.266475 would be substituted with 0.410085
Warning Newton-Raphson exceed number of max iteration in PT
Compressibility factor  -3.0552 would be substituted with 0.487555
Warning Newton-Raphson exceed number of max iteration in PT
Compressibility factor  0.641828 would be substituted with 0.400242
Warning Newton-Raphson exceed number of max iteration in PT
Compressibility factor  0.266475 would be substituted with 0.410085
Warning Newton-Raphson exceed number of max iteration in PT
Compressibility factor  0.188255 would be substituted with 0.4796
Warning Newton-Raphson exceed number of max iteration in PT
Compressibility factor  0.651232 would be substituted with 0.384474
Warning Newton-Raphson exceed number of max iteration in PT
Compressibility factor  0.266475 would be substituted with 0.410085
Warning Newton-Raphson exceed number of max iteration in PT
Compressibility factor  0.641821 would be substituted with 0.473352
Warning Newton-Raphson exceed number of max iteration in PT
Compressibility factor  0.266475 would be substituted with 0.410085
Warning Newton-Raphson exceed number of max iteration in PT
Compressibility factor  0.641822 would be substituted with 0.475712
Warning Newton-Raphson exceed number of max iteration in PT
Compressibility factor  0.641894 would be substituted with 0.399729
Warning Newton-Raphson exceed number of max iteration in PT
Compressibility factor  0.266475 would be substituted with 0.410085
Warning Newton-Raphson exceed number of max iteration in PT
Compressibility factor  -0.22177 would be substituted with 0.474285
Warning Newton-Raphson exceed number of max iteration in PT
Compressibility factor  0.208126 would be substituted with 0.384247
Warning Newton-Raphson exceed number of max iteration in PT
Compressibility factor  0.266475 would be substituted with 0.410085
Warning Newton-Raphson exceed number of max iteration in PT
Compressibility factor  0.641829 would be substituted with 0.470979
Warning Newton-Raphson exceed number of max iteration in PT
Compressibility factor  0.266475 would be substituted with 0.410085
Warning Newton-Raphson exceed number of max iteration in PT
Compressibility factor  0.642389 would be substituted with 0.474648
Warning Newton-Raphson exceed number of max iteration in PT
Compressibility factor  0.641854 would be substituted with 0.399896
Warning Newton-Raphson exceed number of max iteration in PT
Compressibility factor  0.266475 would be substituted with 0.410085
|         100|    3.049447|           1|           7|   -6.163240|  1.5020e-01  1.5020e-01|  3.3598e+05  3.3598e+05|
Warning Newton-Raphson exceed number of max iteration in PT
Compressibility factor  -0.421243 would be substituted with 0.473836
Warning Newton-Raphson exceed number of max iteration in PT
Compressibility factor  0.64456 would be substituted with 0.384427
Warning Newton-Raphson exceed number of max iteration in PT
Compressibility factor  0.266475 would be substituted with 0.410085
Warning Newton-Raphson exceed number of max iteration in PT
Compressibility factor  0.684071 would be substituted with 0.39413
Warning Newton-Raphson exceed number of max iteration in PT
Compressibility factor  0.266475 would be substituted with 0.410085
Warning Newton-Raphson exceed number of max iteration in PT
Compressibility factor  0.266475 would be substituted with 0.410085
Warning Newton-Raphson exceed number of max iteration in PT
Compressibility factor  0.266475 would be substituted with 0.410085
Warning Newton-Raphson exceed number of max iteration in PT
Compressibility factor  1.68672 would be substituted with 0.453576
Warning Newton-Raphson exceed number of max iteration in PT
Compressibility factor  0.266475 would be substituted with 0.410085
Warning Newton-Raphson exceed number of max iteration in PT
Compressibility factor  0.169508 would be substituted with 0.446754
Warning Newton-Raphson exceed number of max iteration in PT
Compressibility factor  0.266475 would be substituted with 0.410085
Warning Newton-Raphson exceed number of max iteration in PT
Compressibility factor  0.641821 would be substituted with 0.44572
Warning Newton-Raphson exceed number of max iteration in PT
Compressibility factor  0.266475 would be substituted with 0.410085
Warning Newton-Raphson exceed number of max iteration in PT
Compressibility factor  -0.937058 would be substituted with 0.446017
Warning Newton-Raphson exceed number of max iteration in PT
Compressibility factor  0.266475 would be substituted with 0.410085
Warning Newton-Raphson exceed number of max iteration in PT
Compressibility factor  2.10487 would be substituted with 0.446828
Warning Newton-Raphson exceed number of max iteration in PT
Compressibility factor  0.266475 would be substituted with 0.410085
Warning Newton-Raphson exceed number of max iteration in PT
Compressibility factor  0.262523 would be substituted with 0.447861
Warning Newton-Raphson exceed number of max iteration in PT
Compressibility factor  0.266475 would be substituted with 0.410085
Warning Newton-Raphson exceed number of max iteration in PT
Compressibility factor  0.641852 would be substituted with 0.448958
Warning Newton-Raphson exceed number of max iteration in PT
Compressibility factor  0.266475 would be substituted with 0.410085
Warning Newton-Raphson exceed number of max iteration in PT
Compressibility factor  0.266475 would be substituted with 0.410085
Warning Newton-Raphson exceed number of max iteration in PT
Compressibility factor  0.266475 would be substituted with 0.410085
Warning Newton-Raphson exceed number of max iteration in PT
Compressibility factor  0.0760047 would be substituted with 0.473559
Warning Newton-Raphson exceed number of max iteration in PT
Compressibility factor  0.266475 would be substituted with 0.410085
Warning Newton-Raphson exceed number of max iteration in PT
Compressibility factor  0.109789 would be substituted with 0.461376
Warning Newton-Raphson exceed number of max iteration in PT
Compressibility factor  0.266475 would be substituted with 0.410085
Warning Newton-Raphson exceed number of max iteration in PT
Compressibility factor  0.266475 would be substituted with 0.410085
Warning Newton-Raphson exceed number of max iteration in PT
Compressibility factor  0.266475 would be substituted with 0.410085
Warning Newton-Raphson exceed number of max iteration in PT
Compressibility factor  1.46087 would be substituted with 0.471179
Warning Newton-Raphson exceed number of max iteration in PT
Compressibility factor  0.266475 would be substituted with 0.410085
Warning Newton-Raphson exceed number of max iteration in PT
Compressibility factor  0.675939 would be substituted with 0.459045
Warning Newton-Raphson exceed number of max iteration in PT
Compressibility factor  0.266475 would be substituted with 0.410085
Warning Newton-Raphson exceed number of max iteration in PT
Compressibility factor  0.0231551 would be substituted with 0.454578
Warning Newton-Raphson exceed number of max iteration in PT
Compressibility factor  0.266475 would be substituted with 0.410085
Warning Newton-Raphson exceed number of max iteration in PT
Compressibility factor  0.174923 would be substituted with 0.452642
Warning Newton-Raphson exceed number of max iteration in PT
Compressibility factor  0.266475 would be substituted with 0.410085
Warning Newton-Raphson exceed number of max iteration in PT
Compressibility factor  0.215369 would be substituted with 0.451986
Warning Newton-Raphson exceed number of max iteration in PT
Compressibility factor  0.266475 would be substituted with 0.410085
Warning Newton-Raphson exceed number of max iteration in PT
Compressibility factor  -0.589279 would be substituted with 0.452036
Warning Newton-Raphson exceed number of max iteration in PT
Compressibility factor  0.266475 would be substituted with 0.410085
Warning Newton-Raphson exceed number of max iteration in PT
Compressibility factor  0.65369 would be substituted with 0.452455
Warning Newton-Raphson exceed number of max iteration in PT
Compressibility factor  0.266475 would be substituted with 0.410085
Warning Newton-Raphson exceed number of max iteration in PT
Compressibility factor  0.662725 would be substituted with 0.453052
Warning Newton-Raphson exceed number of max iteration in PT
Compressibility factor  0.266475 would be substituted with 0.410085
Warning Newton-Raphson exceed number of max iteration in PT
Compressibility factor  0.239695 would be substituted with 0.453712
Warning Newton-Raphson exceed number of max iteration in PT
Compressibility factor  0.266475 would be substituted with 0.410085
Warning Newton-Raphson exceed number of max iteration in PT
Compressibility factor  0.266475 would be substituted with 0.410085
Warning Newton-Raphson exceed number of max iteration in PT
Compressibility factor  -0.110171 would be substituted with 0.473208
Warning Newton-Raphson exceed number of max iteration in PT
Compressibility factor  0.266475 would be substituted with 0.410085
Warning Newton-Raphson exceed number of max iteration in PT
Compressibility factor  0.245874 would be substituted with 0.464366
Warning Newton-Raphson exceed number of max iteration in PT
Compressibility factor  0.266475 would be substituted with 0.410085
Warning Newton-Raphson exceed number of max iteration in PT
Compressibility factor  0.304873 would be substituted with 0.460203
Warning Newton-Raphson exceed number of max iteration in PT
Compressibility factor  0.266475 would be substituted with 0.410085
Warning Newton-Raphson exceed number of max iteration in PT
Compressibility factor  0.641891 would be substituted with 0.45814
Warning Newton-Raphson exceed number of max iteration in PT
Compressibility factor  0.266475 would be substituted with 0.410085
Warning Newton-Raphson exceed number of max iteration in PT
Compressibility factor  0.178534 would be substituted with 0.45718
Warning Newton-Raphson exceed number of max iteration in PT
Compressibility factor  0.266475 would be substituted with 0.410085
Warning Newton-Raphson exceed number of max iteration in PT
Compressibility factor  0.976313 would be substituted with 0.456842
Warning Newton-Raphson exceed number of max iteration in PT
Compressibility factor  0.266475 would be substituted with 0.410085
Warning Newton-Raphson exceed number of max iteration in PT
Compressibility factor  0.237003 would be substituted with 0.456845
Warning Newton-Raphson exceed number of max iteration in PT
Compressibility factor  0.266475 would be substituted with 0.410085
Warning Newton-Raphson exceed number of max iteration in PT
Compressibility factor  0.29699 would be substituted with 0.457021
Warning Newton-Raphson exceed number of max iteration in PT
Compressibility factor  0.266475 would be substituted with 0.410085
Warning Newton-Raphson exceed number of max iteration in PT
Compressibility factor  0.641834 would be substituted with 0.457276
Warning Newton-Raphson exceed number of max iteration in PT
Compressibility factor  0.266475 would be substituted with 0.410085
Warning Newton-Raphson exceed number of max iteration in PT
Compressibility factor  0.211869 would be substituted with 0.457553
Warning Newton-Raphson exceed number of max iteration in PT
Compressibility factor  0.266475 would be substituted with 0.410085
Warning Newton-Raphson exceed number of max iteration in PT
Compressibility factor  0.266475 would be substituted with 0.410085
Warning Newton-Raphson exceed number of max iteration in PT
Compressibility factor  -0.0139771 would be substituted with 0.47603
Warning Newton-Raphson exceed number of max iteration in PT
Compressibility factor  0.266475 would be substituted with 0.410085
Warning Newton-Raphson exceed number of max iteration in PT
Compressibility factor  0.151081 would be substituted with 0.466992
Warning Newton-Raphson exceed number of max iteration in PT
Compressibility factor  0.266475 would be substituted with 0.410085
Warning Newton-Raphson exceed number of max iteration in PT
Compressibility factor  0.2391 would be substituted with 0.462546
Warning Newton-Raphson exceed number of max iteration in PT
Compressibility factor  0.266475 would be substituted with 0.410085
Warning Newton-Raphson exceed number of max iteration in PT
Compressibility factor  0.642452 would be substituted with 0.460202
Warning Newton-Raphson exceed number of max iteration in PT
Compressibility factor  0.266475 would be substituted with 0.410085
Warning Newton-Raphson exceed number of max iteration in PT
Compressibility factor  0.642198 would be substituted with 0.458985
Warning Newton-Raphson exceed number of max iteration in PT
Compressibility factor  0.266475 would be substituted with 0.410085
Warning Newton-Raphson exceed number of max iteration in PT
Compressibility factor  0.140554 would be substituted with 0.458416
Warning Newton-Raphson exceed number of max iteration in PT
Compressibility factor  0.266475 would be substituted with 0.410085
Warning Newton-Raphson exceed number of max iteration in PT
Compressibility factor  0.236325 would be substituted with 0.458215
Warning Newton-Raphson exceed number of max iteration in PT
Compressibility factor  0.266475 would be substituted with 0.410085
Warning Newton-Raphson exceed number of max iteration in PT
Compressibility factor  4.56545 would be substituted with 0.458219
Warning Newton-Raphson exceed number of max iteration in PT
Compressibility factor  0.266475 would be substituted with 0.410085
Warning Newton-Raphson exceed number of max iteration in PT
Compressibility factor  0.266475 would be substituted with 0.410085
Warning Newton-Raphson exceed number of max iteration in PT
Compressibility factor  0.132743 would be substituted with 0.476303
Warning Newton-Raphson exceed number of max iteration in PT
Compressibility factor  0.266475 would be substituted with 0.410085
Warning Newton-Raphson exceed number of max iteration in PT
Compressibility factor  0.187154 would be substituted with 0.467238
Warning Newton-Raphson exceed number of max iteration in PT
Compressibility factor  0.266475 would be substituted with 0.410085
Warning Newton-Raphson exceed number of max iteration in PT
Compressibility factor  0.0623809 would be substituted with 0.462798
Warning Newton-Raphson exceed number of max iteration in PT
Compressibility factor  0.266475 would be substituted with 0.410085
|         150|    3.042664|           1|           7|   -6.145352|  1.4512e-01  1.4512e-01|  3.3706e+05  3.3706e+05|
Warning Newton-Raphson exceed number of max iteration in PT
Compressibility factor  0.216085 would be substituted with 0.460469
Warning Newton-Raphson exceed number of max iteration in PT
Compressibility factor  0.266475 would be substituted with 0.410085
Warning Newton-Raphson exceed number of max iteration in PT
Compressibility factor  0.266475 would be substituted with 0.410085
Warning Newton-Raphson exceed number of max iteration in PT
Compressibility factor  -0.353083 would be substituted with 0.476057
Warning Newton-Raphson exceed number of max iteration in PT
Compressibility factor  0.266475 would be substituted with 0.410085
Warning Newton-Raphson exceed number of max iteration in PT
Compressibility factor  0.48684 would be substituted with 0.466721
Warning Newton-Raphson exceed number of max iteration in PT
Compressibility factor  0.266475 would be substituted with 0.410085
Warning Newton-Raphson exceed number of max iteration in PT
Compressibility factor  -0.837201 would be substituted with 0.46227
Warning Newton-Raphson exceed number of max iteration in PT
Compressibility factor  0.266475 would be substituted with 0.410085
Warning Newton-Raphson exceed number of max iteration in PT
Compressibility factor  0.242891 would be substituted with 0.460003
Warning Newton-Raphson exceed number of max iteration in PT
Compressibility factor  0.266475 would be substituted with 0.410085
Warning Newton-Raphson exceed number of max iteration in PT
Compressibility factor  0.181569 would be substituted with 0.458887
Warning Newton-Raphson exceed number of max iteration in PT
Compressibility factor  0.266475 would be substituted with 0.410085
Warning Newton-Raphson exceed number of max iteration in PT
Compressibility factor  0.266475 would be substituted with 0.410085
Warning Newton-Raphson exceed number of max iteration in PT
Compressibility factor  0.200748 would be substituted with 0.475887
Warning Newton-Raphson exceed number of max iteration in PT
Compressibility factor  0.266475 would be substituted with 0.410085
Warning Newton-Raphson exceed number of max iteration in PT
Compressibility factor  0.642186 would be substituted with 0.466773
Warning Newton-Raphson exceed number of max iteration in PT
Compressibility factor  0.266475 would be substituted with 0.410085
Warning Newton-Raphson exceed number of max iteration in PT
Compressibility factor  0.103814 would be substituted with 0.462427
Warning Newton-Raphson exceed number of max iteration in PT
Compressibility factor  0.266475 would be substituted with 0.410085
Warning Newton-Raphson exceed number of max iteration in PT
Compressibility factor  4.77342 would be substituted with 0.460218
Warning Newton-Raphson exceed number of max iteration in PT
Compressibility factor  0.266475 would be substituted with 0.410085
Warning Newton-Raphson exceed number of max iteration in PT
Compressibility factor  0.641821 would be substituted with 0.459142
Warning Newton-Raphson exceed number of max iteration in PT
Compressibility factor  0.266475 would be substituted with 0.410085
Warning Newton-Raphson exceed number of max iteration in PT
Compressibility factor  0.230345 would be substituted with 0.458703
Warning Newton-Raphson exceed number of max iteration in PT
Compressibility factor  0.266475 would be substituted with 0.410085
Warning Newton-Raphson exceed number of max iteration in PT
Compressibility factor  0.253237 would be substituted with 0.458623
Warning Newton-Raphson exceed number of max iteration in PT
Compressibility factor  0.266475 would be substituted with 0.410085
Warning Newton-Raphson exceed number of max iteration in PT
Compressibility factor  0.266475 would be substituted with 0.410085
Warning Newton-Raphson exceed number of max iteration in PT
Compressibility factor  0.162393 would be substituted with 0.47669
Warning Newton-Raphson exceed number of max iteration in PT
Compressibility factor  0.266475 would be substituted with 0.410085
Warning Newton-Raphson exceed number of max iteration in PT
Compressibility factor  0.641384 would be substituted with 0.472951
Warning Newton-Raphson exceed number of max iteration in PT
Compressibility factor  0.0998083 would be substituted with 0.408462
|         200|    0.951603|           0|          14|   -6.101716|  1.4440e-01  1.4440e-01|  3.3852e+05  3.3852e+05|
|         250|    0.979530|           0|          14|   -6.129789|  1.4388e-01  1.4388e-01|  3.3941e+05  3.3941e+05|
|         300|    0.705898|           0|           6|   -6.773250|  1.5532e-01  1.5532e-01|  3.3931e+05  3.3931e+05|
|         350|    0.883183|           0|           8|   -6.494851|  1.5360e-01  1.5360e-01|  3.3923e+05  3.3923e+05|
|         400|    0.532670|           0|           4|   -7.554491|  1.5641e-01  1.5641e-01|  3.3912e+05  3.3912e+05|
|         450|    0.500405|           0|           5|   -7.558964|  1.5612e-01  1.5612e-01|  3.3912e+05  3.3912e+05|
|         500|    0.490831|           0|           4|   -7.482674|  1.5674e-01  1.5674e-01|  3.3910e+05  3.3910e+05|
|         550|    0.480863|           0|           4|   -7.588303|  1.5670e-01  1.5670e-01|  3.3910e+05  3.3910e+05|
|         600|    0.478574|           0|           4|   -7.410846|  1.5677e-01  1.5677e-01|  3.3909e+05  3.3909e+05|
|         650|    0.476715|           0|           4|   -7.203026|  1.5661e-01  1.5661e-01|  3.3909e+05  3.3909e+05|
|         700|    0.474969|           0|           4|   -7.425578|  1.5680e-01  1.5680e-01|  3.3909e+05  3.3909e+05|
|         750|    0.475623|           0|           4|   -7.507321|  1.5687e-01  1.5687e-01|  3.3909e+05  3.3909e+05|
|         800|    0.473448|           0|           4|   -7.475779|  1.5681e-01  1.5681e-01|  3.3909e+05  3.3909e+05|
|         850|    0.474127|           0|           4|   -7.063075|  1.5672e-01  1.5672e-01|  3.3909e+05  3.3909e+05|
|         900|    0.469580|           0|           4|   -7.111772|  1.5683e-01  1.5683e-01|  3.3908e+05  3.3908e+05|
|         950|    0.468406|           0|           4|   -7.131592|  1.5674e-01  1.5674e-01|  3.3908e+05  3.3908e+05|
|        1000|    0.466975|           0|           4|   -7.201248|  1.5661e-01  1.5661e-01|  3.3908e+05  3.3908e+05|
+-----------------------------------------------------------------------+
|        File Writing Summary       |              Filename             |
+-----------------------------------------------------------------------+
|SU2 restart                        |solution.dat                       |
|SU2 ASCII restart                  |solution.csv                       |
|Paraview                           |flow.vtu                           |
|Tecplot ASCII                      |flow.dat                           |
|Paraview surface                   |surface_flow.vtu                   |
+-----------------------------------------------------------------------+
+------------------------------------------------------------------------------------------+
|  Inner_Iter|    rms[Rho]|Nonphysical_|Linear_Solve|   LinSolRes|    Avg_Mach|   Avg_Press|
+------------------------------------------------------------------------------------------+
|        1050|    0.465721|           0|           4|   -7.100038|  1.5680e-01  1.5680e-01|  3.3908e+05  3.3908e+05|
|        1100|    0.459475|           0|           4|   -7.458605|  1.5670e-01  1.5670e-01|  3.3907e+05  3.3907e+05|
|        1150|    0.455728|           0|           4|   -7.540766|  1.5666e-01  1.5666e-01|  3.3907e+05  3.3907e+05|
|        1200|    0.452989|           0|           4|   -7.438375|  1.5672e-01  1.5672e-01|  3.3906e+05  3.3906e+05|
|        1250|    0.447242|           0|           4|   -7.008193|  1.5663e-01  1.5663e-01|  3.3906e+05  3.3906e+05|
|        1300|    0.440652|           0|           4|   -7.525758|  1.5655e-01  1.5655e-01|  3.3906e+05  3.3906e+05|
|        1350|    0.432811|           0|           4|   -7.489498|  1.5662e-01  1.5662e-01|  3.3905e+05  3.3905e+05|
|        1400|    0.425486|           0|           4|   -7.542022|  1.5664e-01  1.5664e-01|  3.3904e+05  3.3904e+05|
|        1450|    0.423034|           0|           4|   -7.110937|  1.5650e-01  1.5650e-01|  3.3904e+05  3.3904e+05|
|        1500|    0.414119|           0|           4|   -7.125726|  1.5663e-01  1.5663e-01|  3.3903e+05  3.3903e+05|
|        1550|    0.409454|           0|           4|   -7.507722|  1.5648e-01  1.5648e-01|  3.3903e+05  3.3903e+05|
|        1600|    0.406746|           0|           4|   -7.479743|  1.5643e-01  1.5643e-01|  3.3902e+05  3.3902e+05|
|        1650|    0.405395|           0|           4|   -7.036530|  1.5632e-01  1.5632e-01|  3.3902e+05  3.3902e+05|
|        1700|    0.398551|           0|           4|   -7.444733|  1.5656e-01  1.5656e-01|  3.3901e+05  3.3901e+05|
|        1750|    0.399017|           0|           4|   -7.486582|  1.5635e-01  1.5635e-01|  3.3901e+05  3.3901e+05|
|        1800|    0.398399|           0|           4|   -7.103802|  1.5632e-01  1.5632e-01|  3.3899e+05  3.3899e+05|
|        1850|    0.398386|           0|           4|   -7.129138|  1.5633e-01  1.5633e-01|  3.3900e+05  3.3900e+05|
|        1900|    0.391355|           0|           4|   -7.431211|  1.5629e-01  1.5629e-01|  3.3900e+05  3.3900e+05|
|        1950|    0.390149|           0|           4|   -7.401636|  1.5639e-01  1.5639e-01|  3.3899e+05  3.3899e+05|
|        2000|    0.388511|           0|           4|   -7.479991|  1.5634e-01  1.5634e-01|  3.3899e+05  3.3899e+05|
+-----------------------------------------------------------------------+
|        File Writing Summary       |              Filename             |
+-----------------------------------------------------------------------+
|SU2 restart                        |solution.dat                       |
|SU2 ASCII restart                  |solution.csv                       |
|Paraview                           |flow.vtu                           |
|Tecplot ASCII                      |flow.dat                           |
|Paraview surface                   |surface_flow.vtu                   |
+-----------------------------------------------------------------------+
+------------------------------------------------------------------------------------------+
|  Inner_Iter|    rms[Rho]|Nonphysical_|Linear_Solve|   LinSolRes|    Avg_Mach|   Avg_Press|
+------------------------------------------------------------------------------------------+
|        2050|    0.384639|           0|           4|   -7.017281|  1.5611e-01  1.5611e-01|  3.3899e+05  3.3899e+05|
|        2100|    0.383039|           0|           4|   -7.089174|  1.5627e-01  1.5627e-01|  3.3898e+05  3.3898e+05|
|        2150|    0.381662|           0|           4|   -7.175790|  1.5613e-01  1.5613e-01|  3.3898e+05  3.3898e+05|
|        2200|    0.377256|           0|           4|   -7.130901|  1.5612e-01  1.5612e-01|  3.3898e+05  3.3898e+05|
|        2250|    0.376019|           0|           4|   -7.418427|  1.5613e-01  1.5613e-01|  3.3898e+05  3.3898e+05|
|        2300|    0.368335|           0|           4|   -7.501329|  1.5619e-01  1.5619e-01|  3.3898e+05  3.3898e+05|
|        2350|    0.364111|           0|           4|   -7.129587|  1.5614e-01  1.5614e-01|  3.3897e+05  3.3897e+05|
|        2400|    0.362746|           0|           4|   -7.402693|  1.5602e-01  1.5602e-01|  3.3898e+05  3.3898e+05|
|        2450|    0.362941|           0|           4|   -7.479384|  1.5610e-01  1.5610e-01|  3.3898e+05  3.3898e+05|
|        2500|    0.357590|           0|           4|   -7.423081|  1.5611e-01  1.5611e-01|  3.3897e+05  3.3897e+05|
|        2550|    0.352937|           0|           4|   -7.077024|  1.5605e-01  1.5605e-01|  3.3898e+05  3.3898e+05|
|        2600|    0.349341|           0|           4|   -7.434685|  1.5616e-01  1.5616e-01|  3.3898e+05  3.3898e+05|
|        2650|    0.350347|           0|           4|   -7.075216|  1.5610e-01  1.5610e-01|  3.3899e+05  3.3899e+05|
|        2700|    0.344706|           0|           4|   -7.110279|  1.5609e-01  1.5609e-01|  3.3898e+05  3.3898e+05|
|        2750|    0.345388|           0|           4|   -7.415485|  1.5606e-01  1.5606e-01|  3.3899e+05  3.3899e+05|
|        2800|    0.345358|           0|           4|   -7.487595|  1.5593e-01  1.5593e-01|  3.3899e+05  3.3899e+05|
|        2850|    0.343333|           0|           4|   -7.442732|  1.5598e-01  1.5598e-01|  3.3899e+05  3.3899e+05|
|        2900|    0.339642|           0|           4|   -6.995821|  1.5603e-01  1.5603e-01|  3.3899e+05  3.3899e+05|
|        2950|    0.339540|           0|           4|   -7.393398|  1.5602e-01  1.5602e-01|  3.3900e+05  3.3900e+05|
|        3000|    0.335072|           0|           4|   -7.499954|  1.5619e-01  1.5619e-01|  3.3900e+05  3.3900e+05|
+-----------------------------------------------------------------------+
|        File Writing Summary       |              Filename             |
+-----------------------------------------------------------------------+
|SU2 restart                        |solution.dat                       |
|SU2 ASCII restart                  |solution.csv                       |
|Paraview                           |flow.vtu                           |
|Tecplot ASCII                      |flow.dat                           |
|Paraview surface                   |surface_flow.vtu                   |
+-----------------------------------------------------------------------+
+------------------------------------------------------------------------------------------+
|  Inner_Iter|    rms[Rho]|Nonphysical_|Linear_Solve|   LinSolRes|    Avg_Mach|   Avg_Press|
+------------------------------------------------------------------------------------------+
|        3050|    0.332809|           0|           4|   -7.425812|  1.5608e-01  1.5608e-01|  3.3900e+05  3.3900e+05|
|        3100|    0.331824|           0|           4|   -7.112361|  1.5608e-01  1.5608e-01|  3.3900e+05  3.3900e+05|
|        3150|    0.333635|           0|           4|   -7.508704|  1.5597e-01  1.5597e-01|  3.3901e+05  3.3901e+05|
|        3200|    0.334063|           0|           4|   -7.449064|  1.5593e-01  1.5593e-01|  3.3901e+05  3.3901e+05|
|        3250|    0.332168|           0|           4|   -7.447374|  1.5597e-01  1.5597e-01|  3.3901e+05  3.3901e+05|
|        3300|    0.331484|           0|           4|   -7.455906|  1.5593e-01  1.5593e-01|  3.3902e+05  3.3902e+05|
|        3350|    0.329220|           0|           4|   -7.088647|  1.5593e-01  1.5593e-01|  3.3901e+05  3.3901e+05|
|        3400|    0.333913|           0|           4|   -7.112489|  1.5594e-01  1.5594e-01|  3.3902e+05  3.3902e+05|
|        3450|    0.327463|           0|           4|   -7.391348|  1.5608e-01  1.5608e-01|  3.3902e+05  3.3902e+05|
|        3500|    0.328712|           0|           4|   -6.995191|  1.5590e-01  1.5590e-01|  3.3902e+05  3.3902e+05|
|        3550|    0.324843|           0|           4|   -7.396535|  1.5599e-01  1.5599e-01|  3.3902e+05  3.3902e+05|
|        3600|    0.320807|           0|           4|   -7.484968|  1.5604e-01  1.5604e-01|  3.3902e+05  3.3902e+05|
|        3650|    0.317704|           0|           4|   -7.438652|  1.5614e-01  1.5614e-01|  3.3901e+05  3.3901e+05|
|        3700|    0.313033|           0|           4|   -7.080745|  1.5597e-01  1.5597e-01|  3.3901e+05  3.3901e+05|
|        3750|    0.311824|           0|           4|   -7.429200|  1.5607e-01  1.5607e-01|  3.3901e+05  3.3901e+05|
|        3800|    0.312014|           0|           4|   -7.512154|  1.5611e-01  1.5611e-01|  3.3902e+05  3.3902e+05|
|        3850|    0.314122|           0|           4|   -7.085298|  1.5597e-01  1.5597e-01|  3.3901e+05  3.3901e+05|
|        3900|    0.306074|           0|           4|   -7.416959|  1.5596e-01  1.5596e-01|  3.3902e+05  3.3902e+05|
|        3950|    0.301677|           0|           4|   -7.448855|  1.5619e-01  1.5619e-01|  3.3901e+05  3.3901e+05|
|        4000|    0.300008|           0|           4|   -7.518248|  1.5606e-01  1.5606e-01|  3.3901e+05  3.3901e+05|
+-----------------------------------------------------------------------+
|        File Writing Summary       |              Filename             |
+-----------------------------------------------------------------------+
|SU2 restart                        |solution.dat                       |
|SU2 ASCII restart                  |solution.csv                       |
|Paraview                           |flow.vtu                           |
|Tecplot ASCII                      |flow.dat                           |
|Paraview surface                   |surface_flow.vtu                   |
+-----------------------------------------------------------------------+
+------------------------------------------------------------------------------------------+
|  Inner_Iter|    rms[Rho]|Nonphysical_|Linear_Solve|   LinSolRes|    Avg_Mach|   Avg_Press|
+------------------------------------------------------------------------------------------+
|        4050|    0.300711|           0|           4|   -7.108288|  1.5606e-01  1.5606e-01|  3.3901e+05  3.3901e+05|
|        4100|    0.294074|           0|           4|   -7.107423|  1.5580e-01  1.5580e-01|  3.3901e+05  3.3901e+05|
|        4150|    0.292261|           0|           4|   -7.063935|  1.5598e-01  1.5598e-01|  3.3902e+05  3.3902e+05|
|        4200|    0.294556|           0|           4|   -7.503474|  1.5598e-01  1.5598e-01|  3.3902e+05  3.3902e+05|
|        4250|    0.288402|           0|           4|   -7.102512|  1.5585e-01  1.5585e-01|  3.3902e+05  3.3902e+05|
|        4300|    0.286915|           0|           4|   -7.104365|  1.5606e-01  1.5606e-01|  3.3901e+05  3.3901e+05|
|        4350|    0.283604|           0|           4|   -7.395092|  1.5593e-01  1.5593e-01|  3.3902e+05  3.3902e+05|
|        4400|    0.281148|           0|           4|   -7.550390|  1.5603e-01  1.5603e-01|  3.3902e+05  3.3902e+05|
|        4450|    0.280866|           0|           4|   -7.142854|  1.5585e-01  1.5585e-01|  3.3902e+05  3.3902e+05|
|        4500|    0.276552|           0|           4|   -7.438823|  1.5591e-01  1.5591e-01|  3.3903e+05  3.3903e+05|
|        4550|    0.280752|           0|           4|   -7.488314|  1.5585e-01  1.5585e-01|  3.3903e+05  3.3903e+05|
|        4600|    0.273585|           0|           4|   -7.453272|  1.5591e-01  1.5591e-01|  3.3903e+05  3.3903e+05|
|        4650|    0.276471|           0|           4|   -7.170123|  1.5583e-01  1.5583e-01|  3.3904e+05  3.3904e+05|
|        4700|    0.270093|           0|           4|   -7.405064|  1.5597e-01  1.5597e-01|  3.3903e+05  3.3903e+05|
|        4750|    0.269766|           0|           4|   -7.430250|  1.5590e-01  1.5590e-01|  3.3904e+05  3.3904e+05|
|        4800|    0.267996|           0|           4|   -7.541613|  1.5598e-01  1.5598e-01|  3.3904e+05  3.3904e+05|
|        4850|    0.267198|           0|           4|   -7.110498|  1.5587e-01  1.5587e-01|  3.3904e+05  3.3904e+05|
|        4900|    0.269193|           0|           4|   -7.029531|  1.5593e-01  1.5593e-01|  3.3905e+05  3.3905e+05|
|        4950|    0.261393|           0|           4|   -7.479895|  1.5604e-01  1.5604e-01|  3.3905e+05  3.3905e+05|
|        5000|    0.262313|           0|           4|   -7.091962|  1.5604e-01  1.5604e-01|  3.3905e+05  3.3905e+05|
+-----------------------------------------------------------------------+
|        File Writing Summary       |              Filename             |
+-----------------------------------------------------------------------+
|SU2 restart                        |solution.dat                       |
|SU2 ASCII restart                  |solution.csv                       |
|Paraview                           |flow.vtu                           |
|Tecplot ASCII                      |flow.dat                           |
|Paraview surface                   |surface_flow.vtu                   |
+-----------------------------------------------------------------------+
+------------------------------------------------------------------------------------------+
|  Inner_Iter|    rms[Rho]|Nonphysical_|Linear_Solve|   LinSolRes|    Avg_Mach|   Avg_Press|
+------------------------------------------------------------------------------------------+
|        5050|    0.261996|           0|           4|   -7.460670|  1.5598e-01  1.5598e-01|  3.3905e+05  3.3905e+05|
|        5100|    0.259719|           0|           4|   -6.712412|  1.5580e-01  1.5580e-01|  3.3905e+05  3.3905e+05|
|        5150|    0.257771|           0|           4|   -7.394535|  1.5597e-01  1.5597e-01|  3.3906e+05  3.3906e+05|
|        5200|    0.258830|           0|           4|   -7.573119|  1.5585e-01  1.5585e-01|  3.3906e+05  3.3906e+05|
|        5250|    0.253865|           0|           4|   -7.133180|  1.5580e-01  1.5580e-01|  3.3907e+05  3.3907e+05|
|        5300|    0.262310|           0|           4|   -7.424597|  1.5596e-01  1.5596e-01|  3.3906e+05  3.3906e+05|
|        5350|    0.249018|           0|           4|   -7.435631|  1.5599e-01  1.5599e-01|  3.3907e+05  3.3907e+05|
|        5400|    0.253397|           0|           4|   -7.123510|  1.5593e-01  1.5593e-01|  3.3907e+05  3.3907e+05|
|        5450|    0.255816|           0|           4|   -7.460944|  1.5610e-01  1.5610e-01|  3.3907e+05  3.3907e+05|
|        5500|    0.244366|           0|           4|   -7.102557|  1.5598e-01  1.5598e-01|  3.3908e+05  3.3908e+05|
|        5550|    0.244916|           0|           4|   -7.444190|  1.5600e-01  1.5600e-01|  3.3908e+05  3.3908e+05|
|        5600|    0.244030|           0|           4|   -6.746765|  1.5587e-01  1.5587e-01|  3.3908e+05  3.3908e+05|
|        5650|    0.238575|           0|           4|   -7.106924|  1.5597e-01  1.5597e-01|  3.3908e+05  3.3908e+05|
|        5700|    0.241606|           0|           4|   -7.436973|  1.5601e-01  1.5601e-01|  3.3908e+05  3.3908e+05|
|        5750|    0.242197|           0|           4|   -7.443404|  1.5608e-01  1.5608e-01|  3.3908e+05  3.3908e+05|
|        5800|    0.238366|           0|           4|   -7.150666|  1.5598e-01  1.5598e-01|  3.3909e+05  3.3909e+05|
|        5850|    0.239563|           0|           4|   -7.475803|  1.5593e-01  1.5593e-01|  3.3909e+05  3.3909e+05|
|        5900|    0.236339|           0|           4|   -7.466534|  1.5603e-01  1.5603e-01|  3.3909e+05  3.3909e+05|
|        5950|    0.230195|           0|           4|   -7.087210|  1.5612e-01  1.5612e-01|  3.3909e+05  3.3909e+05|
|        6000|    0.236428|           0|           4|   -7.105390|  1.5592e-01  1.5592e-01|  3.3910e+05  3.3910e+05|
+-----------------------------------------------------------------------+
|        File Writing Summary       |              Filename             |
+-----------------------------------------------------------------------+
|SU2 restart                        |solution.dat                       |
|SU2 ASCII restart                  |solution.csv                       |
|Paraview                           |flow.vtu                           |
|Tecplot ASCII                      |flow.dat                           |
|Paraview surface                   |surface_flow.vtu                   |
+-----------------------------------------------------------------------+
+------------------------------------------------------------------------------------------+
|  Inner_Iter|    rms[Rho]|Nonphysical_|Linear_Solve|   LinSolRes|    Avg_Mach|   Avg_Press|
+------------------------------------------------------------------------------------------+
|        6050|    0.226850|           0|           4|   -7.434910|  1.5613e-01  1.5613e-01|  3.3909e+05  3.3909e+05|
|        6100|    0.228654|           0|           4|   -7.190286|  1.5588e-01  1.5588e-01|  3.3910e+05  3.3910e+05|
|        6150|    0.229992|           0|           4|   -7.426622|  1.5606e-01  1.5606e-01|  3.3910e+05  3.3910e+05|
|        6200|    0.222669|           0|           4|   -7.397364|  1.5613e-01  1.5613e-01|  3.3911e+05  3.3911e+05|
|        6250|    0.228686|           0|           4|   -7.588715|  1.5602e-01  1.5602e-01|  3.3911e+05  3.3911e+05|
|        6300|    0.223051|           0|           4|   -7.417996|  1.5602e-01  1.5602e-01|  3.3911e+05  3.3911e+05|
|        6350|    0.223833|           0|           4|   -7.442743|  1.5602e-01  1.5602e-01|  3.3911e+05  3.3911e+05|
|        6400|    0.222430|           0|           4|   -7.194074|  1.5592e-01  1.5592e-01|  3.3912e+05  3.3912e+05|
|        6450|    0.217895|           0|           4|   -7.455206|  1.5622e-01  1.5622e-01|  3.3911e+05  3.3911e+05|
|        6500|    0.220205|           0|           4|   -7.122638|  1.5602e-01  1.5602e-01|  3.3912e+05  3.3912e+05|
|        6550|    0.218742|           0|           4|   -7.537404|  1.5604e-01  1.5604e-01|  3.3913e+05  3.3913e+05|
|        6600|    0.211122|           0|           4|   -7.480672|  1.5605e-01  1.5605e-01|  3.3912e+05  3.3912e+05|
|        6650|    0.216861|           0|           4|   -7.454680|  1.5600e-01  1.5600e-01|  3.3913e+05  3.3913e+05|
|        6700|    0.209636|           0|           4|   -7.108058|  1.5608e-01  1.5608e-01|  3.3912e+05  3.3912e+05|
|        6750|    0.214049|           0|           4|   -7.471023|  1.5601e-01  1.5601e-01|  3.3913e+05  3.3913e+05|
|        6800|    0.208404|           0|           4|   -7.001518|  1.5612e-01  1.5612e-01|  3.3913e+05  3.3913e+05|
|        6850|    0.206402|           0|           4|   -7.411813|  1.5614e-01  1.5614e-01|  3.3913e+05  3.3913e+05|
|        6900|    0.206697|           0|           4|   -7.148382|  1.5623e-01  1.5623e-01|  3.3914e+05  3.3914e+05|
|        6950|    0.203030|           0|           4|   -7.483389|  1.5603e-01  1.5603e-01|  3.3914e+05  3.3914e+05|
|        7000|    0.202483|           0|           4|   -7.461058|  1.5608e-01  1.5608e-01|  3.3914e+05  3.3914e+05|
+-----------------------------------------------------------------------+
|        File Writing Summary       |              Filename             |
+-----------------------------------------------------------------------+
|SU2 restart                        |solution.dat                       |
|SU2 ASCII restart                  |solution.csv                       |
|Paraview                           |flow.vtu                           |
|Tecplot ASCII                      |flow.dat                           |
|Paraview surface                   |surface_flow.vtu                   |
+-----------------------------------------------------------------------+
+------------------------------------------------------------------------------------------+
|  Inner_Iter|    rms[Rho]|Nonphysical_|Linear_Solve|   LinSolRes|    Avg_Mach|   Avg_Press|
+------------------------------------------------------------------------------------------+
|        7050|    0.201200|           0|           4|   -7.119368|  1.5606e-01  1.5606e-01|  3.3915e+05  3.3915e+05|
|        7100|    0.204045|           0|           4|   -7.466481|  1.5615e-01  1.5615e-01|  3.3914e+05  3.3914e+05|
|        7150|    0.193607|           0|           4|   -7.438532|  1.5608e-01  1.5608e-01|  3.3915e+05  3.3915e+05|
|        7200|    0.197423|           0|           4|   -7.562025|  1.5606e-01  1.5606e-01|  3.3915e+05  3.3915e+05|
|        7250|    0.187890|           0|           4|   -7.141782|  1.5611e-01  1.5611e-01|  3.3915e+05  3.3915e+05|
|        7300|    0.195764|           0|           4|   -7.499229|  1.5618e-01  1.5618e-01|  3.3915e+05  3.3915e+05|
|        7350|    0.188720|           0|           4|   -7.056009|  1.5625e-01  1.5625e-01|  3.3915e+05  3.3915e+05|
|        7400|    0.191251|           0|           4|   -7.186434|  1.5608e-01  1.5608e-01|  3.3916e+05  3.3916e+05|
|        7450|    0.185906|           0|           4|   -7.466454|  1.5626e-01  1.5626e-01|  3.3915e+05  3.3915e+05|
|        7500|    0.189865|           0|           4|   -7.459229|  1.5621e-01  1.5621e-01|  3.3916e+05  3.3916e+05|
|        7550|    0.184248|           0|           4|   -7.134861|  1.5612e-01  1.5612e-01|  3.3916e+05  3.3916e+05|
|        7600|    0.184178|           0|           4|   -7.092320|  1.5613e-01  1.5613e-01|  3.3917e+05  3.3917e+05|
|        7650|    0.177562|           0|           4|   -7.105561|  1.5616e-01  1.5616e-01|  3.3916e+05  3.3916e+05|
|        7700|    0.178771|           0|           4|   -7.538684|  1.5618e-01  1.5618e-01|  3.3917e+05  3.3917e+05|
|        7750|    0.183683|           0|           4|   -7.115817|  1.5599e-01  1.5599e-01|  3.3917e+05  3.3917e+05|
|        7800|    0.177505|           0|           4|   -7.417840|  1.5610e-01  1.5610e-01|  3.3917e+05  3.3917e+05|
|        7850|    0.175432|           0|           4|   -7.551220|  1.5611e-01  1.5611e-01|  3.3918e+05  3.3918e+05|
[...]
|        3400|    0.089273|           2|           3|   -6.551200|  4.4802e-02  4.4802e-02|  3.1973e+05  3.1973e+05|
|        3450|    0.077333|           2|           3|   -6.533267|  4.4606e-02  4.4606e-02|  3.1973e+05  3.1973e+05|
|        3500|    0.089070|           2|           3|   -6.558531|  4.4408e-02  4.4408e-02|  3.1974e+05  3.1974e+05|
|        3550|    0.074555|           2|           3|   -6.538097|  4.4211e-02  4.4211e-02|  3.1974e+05  3.1974e+05|
|        3600|    0.093219|           2|           3|   -6.579555|  4.4017e-02  4.4017e-02|  3.1974e+05  3.1974e+05|
|        3650|    0.105669|           2|           3|   -6.605372|  4.3830e-02  4.3830e-02|  3.1974e+05  3.1974e+05|
|        3700|    0.087621|           2|           3|   -6.575071|  4.3652e-02  4.3652e-02|  3.1975e+05  3.1975e+05|
|        3750|    0.099403|           2|           3|   -6.595823|  4.3481e-02  4.3481e-02|  3.1975e+05  3.1975e+05|
|        3800|    0.084499|           2|           3|   -6.569559|  4.3316e-02  4.3316e-02|  3.1975e+05  3.1975e+05|
|        3850|    0.085798|           2|           3|   -6.572416|  4.3157e-02  4.3157e-02|  3.1975e+05  3.1975e+05|
|        3900|    0.091599|           2|           3|   -6.583845|  4.2999e-02  4.2999e-02|  3.1975e+05  3.1975e+05|
|        3950|    0.081687|           2|           3|   -6.567511|  4.2838e-02  4.2838e-02|  3.1975e+05  3.1975e+05|
|        4000|    0.076268|           2|           3|   -6.559515|  4.2671e-02  4.2671e-02|  3.1976e+05  3.1976e+05|
+-----------------------------------------------------------------------+
|        File Writing Summary       |              Filename             |
+-----------------------------------------------------------------------+
|SU2 restart                        |solution.dat                       |
|SU2 ASCII restart                  |solution.csv                       |
|Paraview                           |flow.vtu                           |
|Tecplot ASCII                      |flow.dat                           |
|Paraview surface                   |surface_flow.vtu                   |
+-----------------------------------------------------------------------+
+------------------------------------------------------------------------------------------+
|  Inner_Iter|    rms[Rho]|Nonphysical_|Linear_Solve|   LinSolRes|    Avg_Mach|   Avg_Press|
+------------------------------------------------------------------------------------------+
|        4050|    0.097577|           2|           3|   -6.603016|  4.2497e-02  4.2497e-02|  3.1976e+05  3.1976e+05|
|        4100|    0.092932|           2|           3|   -6.597543|  4.2313e-02  4.2313e-02|  3.1976e+05  3.1976e+05|
|        4150|    0.089940|           2|           3|   -6.594674|  4.2119e-02  4.2119e-02|  3.1976e+05  3.1976e+05|
|        4200|    0.085825|           2|           3|   -6.589841|  4.1919e-02  4.1919e-02|  3.1977e+05  3.1977e+05|
|        4250|    0.081575|           2|           3|   -6.583973|  4.1717e-02  4.1717e-02|  3.1977e+05  3.1977e+05|
|        4300|    0.070523|           2|           3|   -6.567247|  4.1518e-02  4.1518e-02|  3.1977e+05  3.1977e+05|
|        4350|    0.075035|           2|           3|   -6.576586|  4.1323e-02  4.1323e-02|  3.1977e+05  3.1977e+05|
|        4400|    0.100747|           2|           3|   -6.624445|  4.1134e-02  4.1134e-02|  3.1977e+05  3.1977e+05|
|        4450|    0.142148|           2|           3|   -6.691915|  4.0949e-02  4.0949e-02|  3.1978e+05  3.1978e+05|
|        4500|    0.103909|           2|           3|   -6.630393|  4.0771e-02  4.0771e-02|  3.1978e+05  3.1978e+05|
|        4550|    0.099988|           2|           3|   -6.622453|  4.0598e-02  4.0598e-02|  3.1978e+05  3.1978e+05|
|        4600|    0.095670|           2|           3|   -6.613260|  4.0433e-02  4.0433e-02|  3.1978e+05  3.1978e+05|
|        4650|    0.084121|           2|           3|   -6.587626|  4.0280e-02  4.0280e-02|  3.1978e+05  3.1978e+05|
|        4700|    0.087482|           2|           3|   -6.597746|  4.0140e-02  4.0140e-02|  3.1978e+05  3.1978e+05|
|        4750|    0.083761|           2|           3|   -6.589829|  4.0013e-02  4.0013e-02|  3.1978e+05  3.1978e+05|
|        4800|    0.093654|           2|           3|   -6.606010|  3.9897e-02  3.9897e-02|  3.1978e+05  3.1978e+05|
|        4850|    0.083495|           2|           3|   -6.579230|  3.9792e-02  3.9792e-02|  3.1978e+05  3.1978e+05|
|        4900|    0.131214|           2|           3|   -6.663599|  3.9692e-02  3.9692e-02|  3.1978e+05  3.1978e+05|
|        4950|    0.120239|           2|           3|   -6.640715|  3.9596e-02  3.9596e-02|  3.1978e+05  3.1978e+05|
|        5000|    0.124204|           2|           3|   -6.642870|  3.9496e-02  3.9496e-02|  3.1979e+05  3.1979e+05|
+-----------------------------------------------------------------------+
|        File Writing Summary       |              Filename             |
+-----------------------------------------------------------------------+
|SU2 restart                        |solution.dat                       |
|SU2 ASCII restart                  |solution.csv                       |
|Paraview                           |flow.vtu                           |
|Tecplot ASCII                      |flow.dat                           |
|Paraview surface                   |surface_flow.vtu                   |
+-----------------------------------------------------------------------+
+------------------------------------------------------------------------------------------+
|  Inner_Iter|    rms[Rho]|Nonphysical_|Linear_Solve|   LinSolRes|    Avg_Mach|   Avg_Press|
+------------------------------------------------------------------------------------------+
|        5050|    0.111753|           2|           3|   -6.614378|  3.9388e-02  3.9388e-02|  3.1979e+05  3.1979e+05|
|        5100|    0.114735|           2|           3|   -6.618349|  3.9270e-02  3.9270e-02|  3.1979e+05  3.1979e+05|
|        5150|    0.110707|           2|           3|   -6.609577|  3.9139e-02  3.9139e-02|  3.1980e+05  3.1980e+05|
|        5200|    0.136805|           2|           3|   -6.662508|  3.8992e-02  3.8992e-02|  3.1980e+05  3.1980e+05|
|        5250|    0.142012|           2|           3|   -6.670320|  3.8826e-02  3.8826e-02|  3.1980e+05  3.1980e+05|
|        5300|    0.136293|           2|           3|   -6.665399|  3.8645e-02  3.8645e-02|  3.1980e+05  3.1980e+05|
|        5350|    0.132969|           2|           3|   -6.662739|  3.8454e-02  3.8454e-02|  3.1981e+05  3.1981e+05|
|        5400|    0.128991|           2|           3|   -6.657352|  3.8253e-02  3.8253e-02|  3.1981e+05  3.1981e+05|
|        5450|    0.119792|           2|           3|   -6.637645|  3.8043e-02  3.8043e-02|  3.1981e+05  3.1981e+05|
|        5500|    0.119347|           2|           3|   -6.638810|  3.7825e-02  3.7825e-02|  3.1982e+05  3.1982e+05|
|        5550|    0.124256|           2|           3|   -6.649601|  3.7595e-02  3.7595e-02|  3.1982e+05  3.1982e+05|
|        5600|    0.122169|           2|           3|   -6.639815|  3.7353e-02  3.7353e-02|  3.1982e+05  3.1982e+05|
|        5650|    0.121899|           2|           3|   -6.639565|  3.7098e-02  3.7098e-02|  3.1983e+05  3.1983e+05|
|        5700|    0.123246|           2|           3|   -6.642145|  3.6825e-02  3.6825e-02|  3.1983e+05  3.1983e+05|
|        5750|    0.124583|           2|           3|   -6.643680|  3.6531e-02  3.6531e-02|  3.1984e+05  3.1984e+05|
|        5800|    0.165423|           2|           3|   -6.718847|  3.6219e-02  3.6219e-02|  3.1984e+05  3.1984e+05|
|        5850|    0.161229|           2|           3|   -6.705031|  3.5896e-02  3.5896e-02|  3.1984e+05  3.1984e+05|
|        5900|    0.153594|           2|           3|   -6.681324|  3.5570e-02  3.5570e-02|  3.1985e+05  3.1985e+05|
|        5950|    0.132470|           2|           3|   -6.629303|  3.5246e-02  3.5246e-02|  3.1985e+05  3.1985e+05|
|        6000|    0.155939|           2|           3|   -6.662446|  3.4932e-02  3.4932e-02|  3.1985e+05  3.1985e+05|
+-----------------------------------------------------------------------+
|        File Writing Summary       |              Filename             |
+-----------------------------------------------------------------------+
|SU2 restart                        |solution.dat                       |
|SU2 ASCII restart                  |solution.csv                       |
|Paraview                           |flow.vtu                           |
|Tecplot ASCII                      |flow.dat                           |
|Paraview surface                   |surface_flow.vtu                   |
+-----------------------------------------------------------------------+
+------------------------------------------------------------------------------------------+
|  Inner_Iter|    rms[Rho]|Nonphysical_|Linear_Solve|   LinSolRes|    Avg_Mach|   Avg_Press|
+------------------------------------------------------------------------------------------+
|        6050|    0.154559|           2|           3|   -6.646602|  3.4631e-02  3.4631e-02|  3.1985e+05  3.1985e+05|
|        6100|    0.176186|           2|           3|   -6.676376|  3.4351e-02  3.4351e-02|  3.1985e+05  3.1985e+05|
|        6150|    0.185167|           2|           3|   -6.682597|  3.4094e-02  3.4094e-02|  3.1986e+05  3.1986e+05|
|        6200|    0.160952|           2|           3|   -6.627167|  3.3859e-02  3.3859e-02|  3.1986e+05  3.1986e+05|
|        6250|    0.187145|           2|           3|   -6.666418|  3.3644e-02  3.3644e-02|  3.1986e+05  3.1986e+05|
|        6300|    0.166966|           2|           3|   -6.619992|  3.3447e-02  3.3447e-02|  3.1986e+05  3.1986e+05|
|        6350|    0.180019|           2|           3|   -6.634563|  3.3266e-02  3.3266e-02|  3.1986e+05  3.1986e+05|
|        6400|    0.184125|           2|           3|   -6.631320|  3.3100e-02  3.3100e-02|  3.1986e+05  3.1986e+05|
|        6450|    0.185820|           2|           3|   -6.621630|  3.2943e-02  3.2943e-02|  3.1986e+05  3.1986e+05|
|        6500|    0.180666|           2|           3|   -6.597188|  3.2792e-02  3.2792e-02|  3.1986e+05  3.1986e+05|
|        6550|    0.192984|           2|           3|   -6.603962|  3.2647e-02  3.2647e-02|  3.1986e+05  3.1986e+05|
|        6600|    0.196671|           2|           3|   -6.595948|  3.2502e-02  3.2502e-02|  3.1986e+05  3.1986e+05|
|        6650|    0.190819|           2|           3|   -6.571669|  3.2352e-02  3.2352e-02|  3.1987e+05  3.1987e+05|
|        6700|    0.187679|           2|           3|   -6.555576|  3.2195e-02  3.2195e-02|  3.1987e+05  3.1987e+05|
|        6750|    0.188811|           2|           3|   -6.545930|  3.2029e-02  3.2029e-02|  3.1987e+05  3.1987e+05|
|        6800|    0.196120|           2|           3|   -6.546135|  3.1855e-02  3.1855e-02|  3.1987e+05  3.1987e+05|
|        6850|    0.197940|           2|           3|   -6.537487|  3.1675e-02  3.1675e-02|  3.1987e+05  3.1987e+05|
|        6900|    0.203853|           2|           3|   -6.536963|  3.1499e-02  3.1499e-02|  3.1987e+05  3.1987e+05|
|        6950|    0.205636|           2|           3|   -6.528849|  3.1329e-02  3.1329e-02|  3.1987e+05  3.1987e+05|
|        7000|    0.225258|           2|           3|   -6.556237|  3.1169e-02  3.1169e-02|  3.1988e+05  3.1988e+05|
+-----------------------------------------------------------------------+
|        File Writing Summary       |              Filename             |
+-----------------------------------------------------------------------+
|SU2 restart                        |solution.dat                       |
|SU2 ASCII restart                  |solution.csv                       |
|Paraview                           |flow.vtu                           |
|Tecplot ASCII                      |flow.dat                           |
|Paraview surface                   |surface_flow.vtu                   |
+-----------------------------------------------------------------------+
+------------------------------------------------------------------------------------------+
|  Inner_Iter|    rms[Rho]|Nonphysical_|Linear_Solve|   LinSolRes|    Avg_Mach|   Avg_Press|
+------------------------------------------------------------------------------------------+
|        7050|    0.221827|           2|           3|   -6.540158|  3.1020e-02  3.1020e-02|  3.1988e+05  3.1988e+05|
|        7100|    0.261024|           2|           3|   -6.604836|  3.0883e-02  3.0883e-02|  3.1988e+05  3.1988e+05|
|        7150|    0.263536|           2|           3|   -6.603897|  3.0758e-02  3.0758e-02|  3.1988e+05  3.1988e+05|
|        7200|    0.243215|           2|           3|   -6.561485|  3.0650e-02  3.0650e-02|  3.1988e+05  3.1988e+05|
|        7250|    0.254343|           2|           3|   -6.582264|  3.0557e-02  3.0557e-02|  3.1987e+05  3.1987e+05|
|        7300|    0.252915|           2|           3|   -6.579795|  3.0481e-02  3.0481e-02|  3.1987e+05  3.1987e+05|
|        7350|    0.276481|           2|           3|   -6.620487|  3.0425e-02  3.0425e-02|  3.1987e+05  3.1987e+05|
|        7400|    0.279409|           2|           3|   -6.613565|  3.0389e-02  3.0389e-02|  3.1987e+05  3.1987e+05|
|        7450|    0.262085|           2|           3|   -6.568668|  3.0370e-02  3.0370e-02|  3.1987e+05  3.1987e+05|
|        7500|    0.267043|           2|           3|   -6.575337|  3.0367e-02  3.0367e-02|  3.1987e+05  3.1987e+05|
|        7550|    0.268740|           2|           3|   -6.585869|  3.0377e-02  3.0377e-02|  3.1987e+05  3.1987e+05|
|        7600|    0.272726|           2|           3|   -6.597284|  3.0403e-02  3.0403e-02|  3.1987e+05  3.1987e+05|
|        7650|    0.277528|           2|           3|   -6.605526|  3.0443e-02  3.0443e-02|  3.1987e+05  3.1987e+05|
|        7700|    0.281055|           2|           3|   -6.610567|  3.0496e-02  3.0496e-02|  3.1986e+05  3.1986e+05|
|        7750|    0.284951|           2|           3|   -6.616923|  3.0557e-02  3.0557e-02|  3.1986e+05  3.1986e+05|
|        7800|    0.287629|           2|           3|   -6.618884|  3.0625e-02  3.0625e-02|  3.1986e+05  3.1986e+05|
|        7850|    0.288050|           2|           3|   -6.617972|  3.0699e-02  3.0699e-02|  3.1986e+05  3.1986e+05|
|        7900|    0.295534|           2|           3|   -6.629371|  3.0775e-02  3.0775e-02|  3.1986e+05  3.1986e+05|
|        7950|    0.296626|           2|           3|   -6.632810|  3.0849e-02  3.0849e-02|  3.1986e+05  3.1986e+05|
|        8000|    0.303247|           2|           3|   -6.637665|  3.0920e-02  3.0920e-02|  3.1986e+05  3.1986e+05|
+-----------------------------------------------------------------------+
|        File Writing Summary       |              Filename             |
+-----------------------------------------------------------------------+
|SU2 restart                        |solution.dat                       |
|SU2 ASCII restart                  |solution.csv                       |
|Paraview                           |flow.vtu                           |
|Tecplot ASCII                      |flow.dat                           |
|Paraview surface                   |surface_flow.vtu                   |
+-----------------------------------------------------------------------+
+------------------------------------------------------------------------------------------+
|  Inner_Iter|    rms[Rho]|Nonphysical_|Linear_Solve|   LinSolRes|    Avg_Mach|   Avg_Press|
+------------------------------------------------------------------------------------------+
|        8050|    0.307647|           2|           3|   -6.639907|  3.0985e-02  3.0985e-02|  3.1986e+05  3.1986e+05|
|        8100|    0.310083|           2|           3|   -6.638403|  3.1041e-02  3.1041e-02|  3.1986e+05  3.1986e+05|
|        8150|    0.319569|           2|           3|   -6.653208|  3.1085e-02  3.1085e-02|  3.1986e+05  3.1986e+05|
|        8200|    0.323818|           2|           3|   -6.661987|  3.1118e-02  3.1118e-02|  3.1986e+05  3.1986e+05|
|        8250|    0.335045|           2|           3|   -6.687613|  3.1135e-02  3.1135e-02|  3.1987e+05  3.1987e+05|
|        8300|    0.335537|           2|           3|   -6.686447|  3.1137e-02  3.1137e-02|  3.1987e+05  3.1987e+05|
|        8350|    0.341479|           2|           3|   -6.698081|  3.1126e-02  3.1126e-02|  3.1987e+05  3.1987e+05|
|        8400|    0.341044|           2|           3|   -6.692243|  3.1102e-02  3.1102e-02|  3.1987e+05  3.1987e+05|
|        8450|    0.348804|           2|           3|   -6.709285|  3.1071e-02  3.1071e-02|  3.1987e+05  3.1987e+05|
|        8500|    0.353568|           2|           3|   -6.721441|  3.1034e-02  3.1034e-02|  3.1987e+05  3.1987e+05|
|        8550|    0.357099|           2|           3|   -6.728884|  3.0993e-02  3.0993e-02|  3.1987e+05  3.1987e+05|
|        8600|    0.358583|           2|           3|   -6.721944|  3.0949e-02  3.0949e-02|  3.1987e+05  3.1987e+05|
|        8650|    0.358917|           2|           3|   -6.731077|  3.0905e-02  3.0905e-02|  3.1987e+05  3.1987e+05|
|        8700|    0.372263|           2|           3|   -6.758227|  3.0858e-02  3.0858e-02|  3.1987e+05  3.1987e+05|
|        8750|    0.368007|           2|           3|   -6.750045|  3.0808e-02  3.0808e-02|  3.1987e+05  3.1987e+05|
|        8800|    0.373165|           2|           3|   -6.762240|  3.0754e-02  3.0754e-02|  3.1988e+05  3.1988e+05|
|        8850|    0.376949|           2|           3|   -6.767286|  3.0697e-02  3.0697e-02|  3.1988e+05  3.1988e+05|
|        8900|    0.383798|           2|           3|   -6.777637|  3.0634e-02  3.0634e-02|  3.1988e+05  3.1988e+05|
|        8950|    0.382930|           2|           3|   -6.772039|  3.0567e-02  3.0567e-02|  3.1988e+05  3.1988e+05|
|        9000|    0.389014|           2|           3|   -6.775756|  3.0496e-02  3.0496e-02|  3.1988e+05  3.1988e+05|
+-----------------------------------------------------------------------+
|        File Writing Summary       |              Filename             |
+-----------------------------------------------------------------------+
|SU2 restart                        |solution.dat                       |
|SU2 ASCII restart                  |solution.csv                       |
|Paraview                           |flow.vtu                           |
|Tecplot ASCII                      |flow.dat                           |
|Paraview surface                   |surface_flow.vtu                   |
+-----------------------------------------------------------------------+
+------------------------------------------------------------------------------------------+
|  Inner_Iter|    rms[Rho]|Nonphysical_|Linear_Solve|   LinSolRes|    Avg_Mach|   Avg_Press|
+------------------------------------------------------------------------------------------+
|        9050|    0.386181|           2|           3|   -6.760092|  3.0420e-02  3.0420e-02|  3.1988e+05  3.1988e+05|
|        9100|    0.393800|           2|           3|   -6.763429|  3.0336e-02  3.0336e-02|  3.1988e+05  3.1988e+05|
|        9150|    0.392097|           2|           3|   -6.744260|  3.0245e-02  3.0245e-02|  3.1988e+05  3.1988e+05|
|        9200|    0.402698|           2|           3|   -6.748724|  3.0152e-02  3.0152e-02|  3.1988e+05  3.1988e+05|
|        9250|    0.407560|           2|           3|   -6.738432|  3.0058e-02  3.0058e-02|  3.1988e+05  3.1988e+05|
|        9300|    0.408746|           2|           3|   -6.719155|  2.9967e-02  2.9967e-02|  3.1988e+05  3.1988e+05|
|        9350|    0.408400|           2|           3|   -6.694411|  2.9879e-02  2.9879e-02|  3.1988e+05  3.1988e+05|
slurmstepd: *** JOB 947960 CANCELLED AT 2022-04-28T10:32:16 *** on minion09
slurmstepd: _slurm_cgroup_destroy: problem deleting step cgroup path /cgroup/freezer/slurm/uid_1052/job_947960/step_batch: Device or resource busy
