

=======================================================================
=======================================================================
                       SU2 - INITIAL SOLUTION



MPI - REPORT BINDINGS:
[minion09:14302] MCW rank 1 bound to socket 1[core 6[hwt 0-1]]: [../../../../../..][BB/../../../../..]
[minion09:14302] MCW rank 2 bound to socket 0[core 1[hwt 0-1]]: [../BB/../../../..][../../../../../..]
[minion09:14302] MCW rank 3 bound to socket 1[core 7[hwt 0-1]]: [../../../../../..][../BB/../../../..]
[minion09:14302] MCW rank 4 bound to socket 0[core 2[hwt 0-1]]: [../../BB/../../..][../../../../../..]
[minion09:14302] MCW rank 5 bound to socket 1[core 8[hwt 0-1]]: [../../../../../..][../../BB/../../..]
[minion09:14302] MCW rank 6 bound to socket 0[core 3[hwt 0-1]]: [../../../BB/../..][../../../../../..]
[minion09:14302] MCW rank 7 bound to socket 1[core 9[hwt 0-1]]: [../../../../../..][../../../BB/../..]
[minion09:14302] MCW rank 8 bound to socket 0[core 4[hwt 0-1]]: [../../../../BB/..][../../../../../..]
[minion09:14302] MCW rank 9 bound to socket 1[core 10[hwt 0-1]]: [../../../../../..][../../../../BB/..]
[minion09:14302] MCW rank 10 bound to socket 0[core 5[hwt 0-1]]: [../../../../../BB][../../../../../..]
[minion09:14302] MCW rank 11 bound to socket 1[core 11[hwt 0-1]]: [../../../../../..][../../../../../BB]
[minion09:14302] MCW rank 0 bound to socket 0[core 0[hwt 0-1]]: [BB/../../../../..][../../../../../..]

-------------------------------------------------------------------------
|    ___ _   _ ___                                                      |
|   / __| | | |_  )   Release 7.1.0 "Blackbird"                         |
|   \__ \ |_| |/ /                                                      |
|   |___/\___//___|   Suite (Computational Fluid Dynamics Code)         |
|                                                                       |
-------------------------------------------------------------------------
| SU2 Project Website: https://su2code.github.io                        |
|                                                                       |
| The SU2 Project is maintained by the SU2 Foundation                   |
| (http://su2foundation.org)                                            |
-------------------------------------------------------------------------
| Copyright 2012-2020, SU2 Contributors                                 |
|                                                                       |
| SU2 is free software; you can redistribute it and/or                  |
| modify it under the terms of the GNU Lesser General Public            |
| License as published by the Free Software Foundation; either          |
| version 2.1 of the License, or (at your option) any later version.    |
|                                                                       |
| SU2 is distributed in the hope that it will be useful,                |
| but WITHOUT ANY WARRANTY; without even the implied warranty of        |
| MERCHANTABILITY or FITNESS FOR A PARTICULAR PURPOSE. See the GNU      |
| Lesser General Public License for more details.                       |
|                                                                       |
| You should have received a copy of the GNU Lesser General Public      |
| License along with SU2. If not, see <http://www.gnu.org/licenses/>.   |
-------------------------------------------------------------------------

Parsing config file for zone 0

----------------- Physical Case Definition ( Zone 0 ) -------------------
Compressible Euler equations.
Mach number: 1e-09.
Angle of attack (AoA): 0 deg, and angle of sideslip (AoS): 0 deg.
No restart solution, use the values at infinity (freestream).
Dimensional simulation.
The reference area is 1 m^2.
The semi-span will be computed using the max y(3D) value.
The reference length is 1 m.
Reference origin for moment evaluation is (0, 0, 0).
Surface(s) where the force coefficients are evaluated: 4.

Surface(s) plotted in the output file: 4.
Surface(s) to be analyzed in detail: 4.
Input mesh file name: admesh.INL.su2

--------------- Space Numerical Integration ( Zone 0 ) ------------------
Roe (with entropy fix = 1) solver for the flow inviscid terms.
Standard Roe without low-dissipation function.
First order integration in space.
Gradient for upwind reconstruction: unweighted Least-Squares.
Gradient for viscous and source terms: Green-Gauss.

--------------- Time Numerical Integration  ( Zone 0 ) ------------------
Local time stepping (steady state simulation).
Euler implicit method for the flow equations.
FGMRES is used for solving the linear system.
Using a ILU(0) preconditioning.
Convergence criteria of the linear solver: 1e-06.
Max number of linear iterations: 20.
CFL adaptation. Factor down: 0.5, factor up: 1.25,
                lower limit: 0.1, upper limit: 10,
                acceptable linear residual: 0.001.
Courant-Friedrichs-Lewy number:        1

------------------ Convergence Criteria  ( Zone 0 ) ---------------------
Maximum number of solver subiterations: 10000.
Begin convergence monitoring at iteration 10.
Residual minimum value: 1e-20.
Cauchy series min. value: 1e-10.
Number of Cauchy elements: 100.
Begin windowed time average at iteration 0.

-------------------- Output Information ( Zone 0 ) ----------------------
Writing solution files every 1000 iterations.
Writing the convergence history file every 1 inner iterations.
Writing the screen convergence history every 50 inner iterations.
The tabular file format is CSV (.csv).
Convergence history file name: history_2nd.
Forces breakdown file name: forces_breakdown.dat.
Surface file name: surface_flow.
Volume file name: flow.
Restart file name: solution.dat.

------------- Config File Boundary Information ( Zone 0 ) ---------------
+-----------------------------------------------------------------------+
|                        Marker Type|                        Marker Name|
+-----------------------------------------------------------------------+
|                         Euler wall|                                  2|
|                                   |                                  3|
+-----------------------------------------------------------------------+
|                     Symmetry plane|                                  6|
+-----------------------------------------------------------------------+
|                   Riemann boundary|                                  1|
|                                   |                                  4|
|                                   |                                  5|
+-----------------------------------------------------------------------+

-------------------- Output Preprocessing ( Zone 0 ) --------------------
Screen output fields: INNER_ITER, RMS_DENSITY, NONPHYSICAL_POINTS, LINSOL_ITER, LINSOL_RESIDUAL, SURFACE_MACH, SURFACE_STATIC_PRESSURE
History output group(s): ITER, RMS_RES
Convergence field(s): RMS_DENSITY
Warning: No (valid) fields chosen for time convergence monitoring. Time convergence monitoring inactive.
Volume output fields: COORDINATES, SOLUTION, PRIMITIVE

------------------- Geometry Preprocessing ( Zone 0 ) -------------------
Two dimensional problem.
1580 grid points before partitioning.
2869 volume elements before partitioning.
6 surface markers.
36 boundary elements in index 0 (Marker = 1).
50 boundary elements in index 1 (Marker = 2).
35 boundary elements in index 2 (Marker = 3).
53 boundary elements in index 3 (Marker = 4).
10 boundary elements in index 4 (Marker = 5).
70 boundary elements in index 5 (Marker = 6).
Executing the partitioning functions.
Building the graph adjacency structure.
Calling ParMETIS... graph partitioning complete (304 edge cuts).
Distributing ParMETIS coloring.
Rebalancing vertices.
Rebalancing volume element connectivity.
Rebalancing markers and surface elements.
1902 vertices including ghost points. 
3167 interior elements including halo cells. 
3130 triangles.
37 quadrilaterals.
Establishing MPI communication patterns.
Setting point connectivity.
Renumbering points (Reverse Cuthill McKee Ordering).
Recomputing point connectivity.
Setting element connectivity.
Checking the numerical grid orientation.
All volume elements are correctly orientend.
There has been a re-orientation of 271 LINE surface elements.
Identifying edges and vertices.
Setting the control volume structure.
Area of the computational grid: 45034.
Searching for the closest normal neighbors to the surfaces.
Storing a mapping from global to local point index.
Compute the surface curvature.
Max K: 1.40397. Mean K: 0.032253. Standard deviation K: 0.177905.
Checking for periodicity.
Computing mesh quality statistics for the dual control volumes.
+--------------------------------------------------------------+
|           Mesh Quality Metric|        Minimum|        Maximum|
+--------------------------------------------------------------+
|    Orthogonality Angle (deg.)|        50.1556|        89.9567|
|     CV Face Area Aspect Ratio|        1.01003|        19.7602|
|           CV Sub-Volume Ratio|              1|        24.1967|
+--------------------------------------------------------------+
Finding max control volume width.
Communicating number of neighbors.
Wetted area = 0 m.
Area projection in the x-plane = 0 m, y-plane = 0 m.
Max. coordinate in the x-direction = -1e+10 m, y-direction = -1e+10 m.
Min. coordinate in the x-direction = 1e+10 m, y-direction = 1e+10 m.
Checking if Euler & Symmetry markers are straight/plane:
Boundary marker 2 is NOT a single straight.
Boundary marker 3 is a single straight.
Boundary marker 6 is a single straight.
Computing wall distances.

-------------------- Solver Preprocessing ( Zone 0 ) --------------------
Inviscid flow: Computing density based on free-stream
temperature and pressure using the ideal gas law.
Force coefficients computed using free-stream values.

-- Models:
+------------------------------------------------------------------------------+
|          Viscosity Model|        Conductivity Model|              Fluid Model|
+------------------------------------------------------------------------------+
|                        -|                         -|                IDEAL_GAS|
+------------------------------------------------------------------------------+
-- Fluid properties:
+------------------------------------------------------------------------------+
|                  Name|    Dim. value|    Ref. value|      Unit|Non-dim. value|
+------------------------------------------------------------------------------+
|          Gas Constant|           297|             1|  N.m/kg.K|           297|
|      Spec. Heat Ratio|             -|             -|         -|           1.4|
+------------------------------------------------------------------------------+
-- Initial and free-stream conditions:
+------------------------------------------------------------------------------+
|                  Name|    Dim. value|    Ref. value|      Unit|Non-dim. value|
+------------------------------------------------------------------------------+
|       Static Pressure|        100000|             1|        Pa|        100000|
|               Density|       1.12233|             1|    kg/m^3|       1.12233|
|           Temperature|           300|             1|         K|           300|
|          Total Energy|        222750|             1|   m^2/s^2|        222750|
|            Velocity-X|   3.53186e-07|             1|       m/s|   3.53186e-07|
|            Velocity-Y|             0|             1|       m/s|             0|
|    Velocity Magnitude|   3.53186e-07|             1|       m/s|   3.53186e-07|
+------------------------------------------------------------------------------+
|           Mach Number|             -|             -|         -|         1e-09|
+------------------------------------------------------------------------------+
Initialize Jacobian structure (Euler). MG level: 0.

------------------- Numerics Preprocessing ( Zone 0 ) -------------------

----------------- Integration Preprocessing ( Zone 0 ) ------------------

------------------- Iteration Preprocessing ( Zone 0 ) ------------------
Euler/Navier-Stokes/RANS fluid iteration.

------------------------------ Begin Solver -----------------------------

Simulation Run using the Single-zone Driver
+------------------------------------------------------------------------------------------+
|  Inner_Iter|    rms[Rho]|Nonphysical_|Linear_Solve|   LinSolRes|    Avg_Mach|   Avg_Press|
+------------------------------------------------------------------------------------------+
|           0|    2.789151|           0|           6|   -6.827001|  1.0078e-09  1.0078e-09|  1.0000e+05  1.0000e+05|
|          50|    2.338098|           3|          13|   -6.110719|  5.6079e-01  5.6079e-01|  1.9409e+05  1.9409e+05|
|         100|    1.561211|           4|          13|   -6.110183|  3.3348e-01  3.3348e-01|  1.1904e+05  1.1904e+05|
|         150|    1.035150|           3|          13|   -6.176732|  3.6459e-01  3.6459e-01|  1.2198e+05  1.2198e+05|
|         200|    0.987018|           3|          12|   -6.369862|  3.5981e-01  3.5981e-01|  1.2122e+05  1.2122e+05|
|         250|    0.889105|           3|           6|   -6.699112|  3.5566e-01  3.5566e-01|  1.2063e+05  1.2063e+05|
|         300|    0.872846|           3|           6|   -6.494533|  3.5780e-01  3.5780e-01|  1.2091e+05  1.2091e+05|
|         350|    0.838788|           3|           3|   -7.567171|  3.5525e-01  3.5525e-01|  1.2077e+05  1.2077e+05|
|         400|    0.820832|           3|           3|   -7.365618|  3.5516e-01  3.5516e-01|  1.2078e+05  1.2078e+05|
|         450|    0.816716|           3|           3|   -7.132261|  3.5533e-01  3.5533e-01|  1.2082e+05  1.2082e+05|
|         500|    0.815516|           3|           3|   -7.213654|  3.5523e-01  3.5523e-01|  1.2082e+05  1.2082e+05|
|         550|    0.815148|           3|           3|   -7.255301|  3.5516e-01  3.5516e-01|  1.2082e+05  1.2082e+05|
|         600|    0.815040|           3|           3|   -7.090605|  3.5515e-01  3.5515e-01|  1.2083e+05  1.2083e+05|
|         650|    0.815000|           3|           3|   -7.055994|  3.5521e-01  3.5521e-01|  1.2085e+05  1.2085e+05|
|         700|    0.814966|           3|           3|   -7.147183|  3.5524e-01  3.5524e-01|  1.2086e+05  1.2086e+05|
|         750|    0.814941|           3|           3|   -7.256832|  3.5521e-01  3.5521e-01|  1.2087e+05  1.2087e+05|
|         800|    0.814964|           3|           3|   -7.325503|  3.5518e-01  3.5518e-01|  1.2087e+05  1.2087e+05|
|         850|    0.814951|           3|           3|   -7.356475|  3.5524e-01  3.5524e-01|  1.2088e+05  1.2088e+05|
|         900|    0.814966|           3|           3|   -7.383443|  3.5521e-01  3.5521e-01|  1.2088e+05  1.2088e+05|
|         950|    0.815012|           3|           3|   -7.426860|  3.5539e-01  3.5539e-01|  1.2090e+05  1.2090e+05|
|        1000|    0.815036|           3|           3|   -7.492671|  3.5540e-01  3.5540e-01|  1.2090e+05  1.2090e+05|
+-----------------------------------------------------------------------+
|        File Writing Summary       |              Filename             |
+-----------------------------------------------------------------------+
|SU2 restart                        |solution.dat                       |
|SU2 ASCII restart                  |solution.csv                       |
|Paraview                           |flow.vtu                           |
|Tecplot ASCII                      |flow.dat                           |
|Paraview surface                   |surface_flow.vtu                   |
+-----------------------------------------------------------------------+
+------------------------------------------------------------------------------------------+
|  Inner_Iter|    rms[Rho]|Nonphysical_|Linear_Solve|   LinSolRes|    Avg_Mach|   Avg_Press|
+------------------------------------------------------------------------------------------+
|        1050|    0.815086|           3|           3|   -7.574124|  3.5542e-01  3.5542e-01|  1.2091e+05  1.2091e+05|
|        1100|    0.815132|           3|           3|   -7.649609|  3.5560e-01  3.5560e-01|  1.2093e+05  1.2093e+05|
|        1150|    0.815194|           3|           3|   -7.690666|  3.5563e-01  3.5563e-01|  1.2094e+05  1.2094e+05|
|        1200|    0.815247|           3|           3|   -7.692584|  3.5573e-01  3.5573e-01|  1.2095e+05  1.2095e+05|
|        1250|    0.815329|           3|           3|   -7.675992|  3.5576e-01  3.5576e-01|  1.2096e+05  1.2096e+05|
|        1300|    0.815397|           3|           3|   -7.659366|  3.5588e-01  3.5588e-01|  1.2098e+05  1.2098e+05|
|        1350|    0.815474|           3|           3|   -7.651676|  3.5600e-01  3.5600e-01|  1.2101e+05  1.2101e+05|
|        1400|    0.815550|           3|           3|   -7.656681|  3.5599e-01  3.5599e-01|  1.2101e+05  1.2101e+05|
|        1450|    0.815606|           3|           3|   -7.671722|  3.5610e-01  3.5610e-01|  1.2103e+05  1.2103e+05|
|        1500|    0.815671|           3|           3|   -7.693283|  3.5607e-01  3.5607e-01|  1.2104e+05  1.2104e+05|
|        1550|    0.815740|           3|           3|   -7.714712|  3.5612e-01  3.5612e-01|  1.2106e+05  1.2106e+05|
|        1600|    0.815804|           3|           3|   -7.733379|  3.5603e-01  3.5603e-01|  1.2105e+05  1.2105e+05|
|        1650|    0.815878|           3|           3|   -7.748088|  3.5609e-01  3.5609e-01|  1.2107e+05  1.2107e+05|
|        1700|    0.815950|           3|           3|   -7.762396|  3.5611e-01  3.5611e-01|  1.2108e+05  1.2108e+05|
|        1750|    0.816028|           3|           3|   -7.778994|  3.5608e-01  3.5608e-01|  1.2108e+05  1.2108e+05|
|        1800|    0.816107|           3|           3|   -7.799462|  3.5599e-01  3.5599e-01|  1.2107e+05  1.2107e+05|
|        1850|    0.816193|           3|           3|   -7.823396|  3.5609e-01  3.5609e-01|  1.2108e+05  1.2108e+05|
|        1900|    0.816281|           3|           3|   -7.849810|  3.5605e-01  3.5605e-01|  1.2108e+05  1.2108e+05|
|        1950|    0.816373|           3|           3|   -7.877449|  3.5610e-01  3.5610e-01|  1.2109e+05  1.2109e+05|
|        2000|    0.816460|           3|           3|   -7.905523|  3.5616e-01  3.5616e-01|  1.2109e+05  1.2109e+05|
+-----------------------------------------------------------------------+
|        File Writing Summary       |              Filename             |
+-----------------------------------------------------------------------+
|SU2 restart                        |solution.dat                       |
|SU2 ASCII restart                  |solution.csv                       |
|Paraview                           |flow.vtu                           |
|Tecplot ASCII                      |flow.dat                           |
|Paraview surface                   |surface_flow.vtu                   |
+-----------------------------------------------------------------------+
+------------------------------------------------------------------------------------------+
|  Inner_Iter|    rms[Rho]|Nonphysical_|Linear_Solve|   LinSolRes|    Avg_Mach|   Avg_Press|
+------------------------------------------------------------------------------------------+
|        2050|    0.816558|           3|           3|   -7.933182|  3.5603e-01  3.5603e-01|  1.2108e+05  1.2108e+05|
|        2100|    0.816641|           3|           3|   -7.958457|  3.5616e-01  3.5616e-01|  1.2109e+05  1.2109e+05|
|        2150|    0.816726|           3|           3|   -7.983185|  3.5614e-01  3.5614e-01|  1.2108e+05  1.2108e+05|
|        2200|    0.816808|           3|           3|   -8.006337|  3.5616e-01  3.5616e-01|  1.2108e+05  1.2108e+05|
|        2250|    0.816882|           3|           3|   -8.027769|  3.5621e-01  3.5621e-01|  1.2108e+05  1.2108e+05|
|        2300|    0.816953|           3|           3|   -8.048651|  3.5621e-01  3.5621e-01|  1.2108e+05  1.2108e+05|
|        2350|    0.817023|           3|           2|   -6.014891|  3.5620e-01  3.5620e-01|  1.2107e+05  1.2107e+05|
|        2400|    0.817083|           3|           2|   -6.036447|  3.5626e-01  3.5626e-01|  1.2107e+05  1.2107e+05|
|        2450|    0.817154|           3|           2|   -6.059908|  3.5629e-01  3.5629e-01|  1.2107e+05  1.2107e+05|
|        2500|    0.817208|           3|           2|   -6.085303|  3.5631e-01  3.5631e-01|  1.2107e+05  1.2107e+05|
|        2550|    0.817257|           3|           2|   -6.112317|  3.5636e-01  3.5636e-01|  1.2107e+05  1.2107e+05|
|        2600|    0.817315|           3|           2|   -6.140569|  3.5638e-01  3.5638e-01|  1.2107e+05  1.2107e+05|
|        2650|    0.817352|           3|           2|   -6.169635|  3.5636e-01  3.5636e-01|  1.2106e+05  1.2106e+05|
|        2700|    0.817418|           3|           2|   -6.198908|  3.5636e-01  3.5636e-01|  1.2105e+05  1.2105e+05|
|        2750|    0.817447|           3|           2|   -6.227865|  3.5640e-01  3.5640e-01|  1.2106e+05  1.2106e+05|
|        2800|    0.817496|           3|           2|   -6.255671|  3.5653e-01  3.5653e-01|  1.2107e+05  1.2107e+05|
|        2850|    0.817525|           3|           2|   -6.281843|  3.5637e-01  3.5637e-01|  1.2105e+05  1.2105e+05|
|        2900|    0.817582|           3|           2|   -6.305269|  3.5635e-01  3.5635e-01|  1.2104e+05  1.2104e+05|
|        2950|    0.817614|           3|           2|   -6.325854|  3.5644e-01  3.5644e-01|  1.2105e+05  1.2105e+05|
|        3000|    0.817649|           3|           2|   -6.342420|  3.5638e-01  3.5638e-01|  1.2104e+05  1.2104e+05|
+-----------------------------------------------------------------------+
|        File Writing Summary       |              Filename             |
+-----------------------------------------------------------------------+
|SU2 restart                        |solution.dat                       |
|SU2 ASCII restart                  |solution.csv                       |
|Paraview                           |flow.vtu                           |
|Tecplot ASCII                      |flow.dat                           |
|Paraview surface                   |surface_flow.vtu                   |
+-----------------------------------------------------------------------+
+------------------------------------------------------------------------------------------+
|  Inner_Iter|    rms[Rho]|Nonphysical_|Linear_Solve|   LinSolRes|    Avg_Mach|   Avg_Press|
+------------------------------------------------------------------------------------------+
|        3050|    0.817698|           3|           2|   -6.354747|  3.5639e-01  3.5639e-01|  1.2104e+05  1.2104e+05|
|        3100|    0.817727|           3|           2|   -6.362769|  3.5633e-01  3.5633e-01|  1.2103e+05  1.2103e+05|
|        3150|    0.817798|           3|           2|   -6.366279|  3.5637e-01  3.5637e-01|  1.2104e+05  1.2104e+05|
|        3200|    0.817825|           3|           2|   -6.366265|  3.5616e-01  3.5616e-01|  1.2101e+05  1.2101e+05|
|        3250|    0.817867|           3|           2|   -6.362446|  3.5635e-01  3.5635e-01|  1.2103e+05  1.2103e+05|
|        3300|    0.817897|           3|           2|   -6.356606|  3.5625e-01  3.5625e-01|  1.2102e+05  1.2102e+05|
|        3350|    0.817953|           3|           2|   -6.349339|  3.5619e-01  3.5619e-01|  1.2101e+05  1.2101e+05|
|        3400|    0.817997|           3|           2|   -6.341192|  3.5617e-01  3.5617e-01|  1.2101e+05  1.2101e+05|
|        3450|    0.818041|           3|           2|   -6.332612|  3.5624e-01  3.5624e-01|  1.2102e+05  1.2102e+05|
|        3500|    0.818079|           3|           2|   -6.324609|  3.5614e-01  3.5614e-01|  1.2100e+05  1.2100e+05|
|        3550|    0.818119|           3|           2|   -6.317134|  3.5613e-01  3.5613e-01|  1.2100e+05  1.2100e+05|
|        3600|    0.818167|           3|           2|   -6.310271|  3.5609e-01  3.5609e-01|  1.2100e+05  1.2100e+05|
|        3650|    0.818225|           3|           2|   -6.304889|  3.5616e-01  3.5616e-01|  1.2100e+05  1.2100e+05|
|        3700|    0.818286|           3|           2|   -6.300483|  3.5607e-01  3.5607e-01|  1.2099e+05  1.2099e+05|
|        3750|    0.818319|           3|           2|   -6.297119|  3.5601e-01  3.5601e-01|  1.2099e+05  1.2099e+05|
|        3800|    0.818362|           3|           2|   -6.295275|  3.5603e-01  3.5603e-01|  1.2099e+05  1.2099e+05|
|        3850|    0.818407|           3|           2|   -6.294022|  3.5600e-01  3.5600e-01|  1.2098e+05  1.2098e+05|
|        3900|    0.818445|           3|           2|   -6.293957|  3.5591e-01  3.5591e-01|  1.2097e+05  1.2097e+05|
|        3950|    0.818496|           3|           2|   -6.294810|  3.5592e-01  3.5592e-01|  1.2097e+05  1.2097e+05|
|        4000|    0.818546|           3|           2|   -6.296497|  3.5599e-01  3.5599e-01|  1.2098e+05  1.2098e+05|
+-----------------------------------------------------------------------+
|        File Writing Summary       |              Filename             |
+-----------------------------------------------------------------------+
|SU2 restart                        |solution.dat                       |
|SU2 ASCII restart                  |solution.csv                       |
|Paraview                           |flow.vtu                           |
|Tecplot ASCII                      |flow.dat                           |
|Paraview surface                   |surface_flow.vtu                   |
+-----------------------------------------------------------------------+
+------------------------------------------------------------------------------------------+
|  Inner_Iter|    rms[Rho]|Nonphysical_|Linear_Solve|   LinSolRes|    Avg_Mach|   Avg_Press|
+------------------------------------------------------------------------------------------+
|        4050|    0.818593|           3|           2|   -6.298901|  3.5591e-01  3.5591e-01|  1.2097e+05  1.2097e+05|
|        4100|    0.818635|           3|           2|   -6.302348|  3.5579e-01  3.5579e-01|  1.2096e+05  1.2096e+05|
|        4150|    0.818686|           3|           2|   -6.306228|  3.5578e-01  3.5578e-01|  1.2096e+05  1.2096e+05|
|        4200|    0.818722|           3|           2|   -6.310960|  3.5585e-01  3.5585e-01|  1.2097e+05  1.2097e+05|
|        4250|    0.818764|           3|           2|   -6.316456|  3.5586e-01  3.5586e-01|  1.2097e+05  1.2097e+05|
|        4300|    0.818809|           3|           2|   -6.322740|  3.5575e-01  3.5575e-01|  1.2095e+05  1.2095e+05|
|        4350|    0.818856|           3|           2|   -6.329472|  3.5575e-01  3.5575e-01|  1.2096e+05  1.2096e+05|
|        4400|    0.818900|           3|           2|   -6.337157|  3.5574e-01  3.5574e-01|  1.2095e+05  1.2095e+05|
|        4450|    0.818942|           3|           2|   -6.345123|  3.5570e-01  3.5570e-01|  1.2095e+05  1.2095e+05|
|        4500|    0.818993|           3|           2|   -6.353750|  3.5566e-01  3.5566e-01|  1.2095e+05  1.2095e+05|
|        4550|    0.819029|           3|           2|   -6.363368|  3.5562e-01  3.5562e-01|  1.2094e+05  1.2094e+05|
|        4600|    0.819069|           3|           2|   -6.373621|  3.5569e-01  3.5569e-01|  1.2095e+05  1.2095e+05|
|        4650|    0.819107|           3|           2|   -6.384425|  3.5563e-01  3.5563e-01|  1.2095e+05  1.2095e+05|
|        4700|    0.819149|           3|           2|   -6.395679|  3.5562e-01  3.5562e-01|  1.2095e+05  1.2095e+05|
|        4750|    0.819184|           3|           2|   -6.407881|  3.5570e-01  3.5570e-01|  1.2096e+05  1.2096e+05|
|        4800|    0.819221|           3|           2|   -6.420458|  3.5557e-01  3.5557e-01|  1.2094e+05  1.2094e+05|
|        4850|    0.819258|           3|           2|   -6.433568|  3.5565e-01  3.5565e-01|  1.2095e+05  1.2095e+05|
|        4900|    0.819294|           3|           2|   -6.447930|  3.5557e-01  3.5557e-01|  1.2095e+05  1.2095e+05|
|        4950|    0.819332|           3|           2|   -6.462600|  3.5560e-01  3.5560e-01|  1.2095e+05  1.2095e+05|
|        5000|    0.819366|           3|           2|   -6.477354|  3.5559e-01  3.5559e-01|  1.2095e+05  1.2095e+05|
+-----------------------------------------------------------------------+
|        File Writing Summary       |              Filename             |
+-----------------------------------------------------------------------+
|SU2 restart                        |solution.dat                       |
|SU2 ASCII restart                  |solution.csv                       |
|Paraview                           |flow.vtu                           |
|Tecplot ASCII                      |flow.dat                           |
|Paraview surface                   |surface_flow.vtu                   |
+-----------------------------------------------------------------------+
+------------------------------------------------------------------------------------------+
|  Inner_Iter|    rms[Rho]|Nonphysical_|Linear_Solve|   LinSolRes|    Avg_Mach|   Avg_Press|
+------------------------------------------------------------------------------------------+
|        5050|    0.819401|           3|           2|   -6.492985|  3.5553e-01  3.5553e-01|  1.2095e+05  1.2095e+05|
|        5100|    0.819431|           3|           2|   -6.509556|  3.5556e-01  3.5556e-01|  1.2095e+05  1.2095e+05|
|        5150|    0.819462|           3|           2|   -6.526671|  3.5556e-01  3.5556e-01|  1.2095e+05  1.2095e+05|
|        5200|    0.819494|           3|           2|   -6.544359|  3.5545e-01  3.5545e-01|  1.2094e+05  1.2094e+05|
|        5250|    0.819524|           3|           2|   -6.561602|  3.5548e-01  3.5548e-01|  1.2094e+05  1.2094e+05|
|        5300|    0.819551|           3|           2|   -6.580579|  3.5534e-01  3.5534e-01|  1.2093e+05  1.2093e+05|
|        5350|    0.819580|           3|           2|   -6.599019|  3.5553e-01  3.5553e-01|  1.2095e+05  1.2095e+05|
|        5400|    0.819606|           3|           2|   -6.618143|  3.5541e-01  3.5541e-01|  1.2094e+05  1.2094e+05|
|        5450|    0.819638|           3|           2|   -6.637468|  3.5551e-01  3.5551e-01|  1.2095e+05  1.2095e+05|
|        5500|    0.819661|           3|           2|   -6.656260|  3.5540e-01  3.5540e-01|  1.2094e+05  1.2094e+05|
|        5550|    0.819687|           3|           2|   -6.675635|  3.5543e-01  3.5543e-01|  1.2094e+05  1.2094e+05|
|        5600|    0.819714|           3|           2|   -6.695135|  3.5542e-01  3.5542e-01|  1.2094e+05  1.2094e+05|
|        5650|    0.819736|           3|           2|   -6.715375|  3.5543e-01  3.5543e-01|  1.2094e+05  1.2094e+05|
|        5700|    0.819757|           3|           2|   -6.733886|  3.5554e-01  3.5554e-01|  1.2096e+05  1.2096e+05|
|        5750|    0.819782|           3|           2|   -6.751920|  3.5548e-01  3.5548e-01|  1.2095e+05  1.2095e+05|
|        5800|    0.819804|           3|           2|   -6.770077|  3.5554e-01  3.5554e-01|  1.2096e+05  1.2096e+05|
|        5850|    0.819829|           3|           2|   -6.788159|  3.5540e-01  3.5540e-01|  1.2094e+05  1.2094e+05|
|        5900|    0.819849|           3|           2|   -6.806096|  3.5549e-01  3.5549e-01|  1.2095e+05  1.2095e+05|
|        5950|    0.819869|           3|           2|   -6.822861|  3.5539e-01  3.5539e-01|  1.2094e+05  1.2094e+05|
|        6000|    0.819890|           3|           2|   -6.838201|  3.5556e-01  3.5556e-01|  1.2096e+05  1.2096e+05|
+-----------------------------------------------------------------------+
|        File Writing Summary       |              Filename             |
+-----------------------------------------------------------------------+
|SU2 restart                        |solution.dat                       |
|SU2 ASCII restart                  |solution.csv                       |
|Paraview                           |flow.vtu                           |
|Tecplot ASCII                      |flow.dat                           |
|Paraview surface                   |surface_flow.vtu                   |
+-----------------------------------------------------------------------+
+------------------------------------------------------------------------------------------+
|  Inner_Iter|    rms[Rho]|Nonphysical_|Linear_Solve|   LinSolRes|    Avg_Mach|   Avg_Press|
+------------------------------------------------------------------------------------------+
|        6050|    0.819913|           3|           2|   -6.850266|  3.5546e-01  3.5546e-01|  1.2095e+05  1.2095e+05|
|        6100|    0.819932|           3|           2|   -6.863409|  3.5554e-01  3.5554e-01|  1.2096e+05  1.2096e+05|
|        6150|    0.819954|           3|           2|   -6.877504|  3.5541e-01  3.5541e-01|  1.2094e+05  1.2094e+05|
|        6200|    0.819977|           3|           2|   -6.889226|  3.5551e-01  3.5551e-01|  1.2095e+05  1.2095e+05|
|        6250|    0.819994|           3|           2|   -6.899251|  3.5547e-01  3.5547e-01|  1.2095e+05  1.2095e+05|
|        6300|    0.820015|           3|           2|   -6.906009|  3.5552e-01  3.5552e-01|  1.2095e+05  1.2095e+05|
|        6350|    0.820035|           3|           2|   -6.913024|  3.5552e-01  3.5552e-01|  1.2096e+05  1.2096e+05|
|        6400|    0.820053|           3|           2|   -6.923237|  3.5550e-01  3.5550e-01|  1.2095e+05  1.2095e+05|
|        6450|    0.820071|           3|           2|   -6.928527|  3.5558e-01  3.5558e-01|  1.2096e+05  1.2096e+05|
|        6500|    0.820090|           3|           2|   -6.931531|  3.5565e-01  3.5565e-01|  1.2097e+05  1.2097e+05|
|        6550|    0.820110|           3|           2|   -6.935187|  3.5568e-01  3.5568e-01|  1.2097e+05  1.2097e+05|
|        6600|    0.820130|           3|           2|   -6.940383|  3.5557e-01  3.5557e-01|  1.2096e+05  1.2096e+05|
|        6650|    0.820148|           3|           2|   -6.945621|  3.5565e-01  3.5565e-01|  1.2097e+05  1.2097e+05|
|        6700|    0.820169|           3|           2|   -6.951113|  3.5556e-01  3.5556e-01|  1.2096e+05  1.2096e+05|
|        6750|    0.820183|           3|           2|   -6.951379|  3.5559e-01  3.5559e-01|  1.2096e+05  1.2096e+05|
|        6800|    0.820211|           3|           2|   -6.954314|  3.5549e-01  3.5549e-01|  1.2095e+05  1.2095e+05|
|        6850|    0.820220|           3|           2|   -6.960096|  3.5554e-01  3.5554e-01|  1.2095e+05  1.2095e+05|
|        6900|    0.820243|           3|           2|   -6.962829|  3.5554e-01  3.5554e-01|  1.2096e+05  1.2096e+05|
|        6950|    0.820259|           3|           2|   -6.962569|  3.5558e-01  3.5558e-01|  1.2096e+05  1.2096e+05|
|        7000|    0.820283|           3|           2|   -6.964114|  3.5554e-01  3.5554e-01|  1.2096e+05  1.2096e+05|
+-----------------------------------------------------------------------+
|        File Writing Summary       |              Filename             |
+-----------------------------------------------------------------------+
|SU2 restart                        |solution.dat                       |
|SU2 ASCII restart                  |solution.csv                       |
|Paraview                           |flow.vtu                           |
|Tecplot ASCII                      |flow.dat                           |
|Paraview surface                   |surface_flow.vtu                   |
+-----------------------------------------------------------------------+
+------------------------------------------------------------------------------------------+
|  Inner_Iter|    rms[Rho]|Nonphysical_|Linear_Solve|   LinSolRes|    Avg_Mach|   Avg_Press|
+------------------------------------------------------------------------------------------+
|        7050|    0.820293|           3|           2|   -6.970967|  3.5557e-01  3.5557e-01|  1.2096e+05  1.2096e+05|
|        7100|    0.820311|           3|           2|   -6.973796|  3.5555e-01  3.5555e-01|  1.2096e+05  1.2096e+05|
|        7150|    0.820328|           3|           2|   -6.973671|  3.5564e-01  3.5564e-01|  1.2097e+05  1.2097e+05|
|        7200|    0.820349|           3|           2|   -6.976536|  3.5555e-01  3.5555e-01|  1.2096e+05  1.2096e+05|
|        7250|    0.820369|           3|           2|   -6.977586|  3.5565e-01  3.5565e-01|  1.2097e+05  1.2097e+05|
|        7300|    0.820380|           3|           2|   -6.981901|  3.5567e-01  3.5567e-01|  1.2097e+05  1.2097e+05|
|        7350|    0.820396|           3|           2|   -6.988275|  3.5570e-01  3.5570e-01|  1.2097e+05  1.2097e+05|
|        7400|    0.820414|           3|           2|   -6.991544|  3.5567e-01  3.5567e-01|  1.2097e+05  1.2097e+05|
|        7450|    0.820433|           3|           2|   -6.991635|  3.5560e-01  3.5560e-01|  1.2096e+05  1.2096e+05|
|        7500|    0.820446|           3|           2|   -6.993873|  3.5573e-01  3.5573e-01|  1.2098e+05  1.2098e+05|
|        7550|    0.820463|           3|           2|   -7.002600|  3.5565e-01  3.5565e-01|  1.2097e+05  1.2097e+05|
|        7600|    0.820483|           3|           2|   -7.006087|  3.5566e-01  3.5566e-01|  1.2096e+05  1.2096e+05|
|        7650|    0.820500|           3|           2|   -7.004777|  3.5567e-01  3.5567e-01|  1.2097e+05  1.2097e+05|
|        7700|    0.820509|           3|           2|   -7.010486|  3.5579e-01  3.5579e-01|  1.2098e+05  1.2098e+05|
|        7750|    0.820527|           3|           2|   -7.017041|  3.5569e-01  3.5569e-01|  1.2097e+05  1.2097e+05|
|        7800|    0.820541|           3|           2|   -7.020100|  3.5577e-01  3.5577e-01|  1.2098e+05  1.2098e+05|
|        7850|    0.820556|           3|           2|   -7.030142|  3.5561e-01  3.5561e-01|  1.2096e+05  1.2096e+05|
|        7900|    0.820568|           3|           2|   -7.035052|  3.5568e-01  3.5568e-01|  1.2096e+05  1.2096e+05|
|        7950|    0.820589|           3|           2|   -7.035967|  3.5564e-01  3.5564e-01|  1.2096e+05  1.2096e+05|
|        8000|    0.820601|           3|           2|   -7.041157|  3.5561e-01  3.5561e-01|  1.2096e+05  1.2096e+05|
+-----------------------------------------------------------------------+
|        File Writing Summary       |              Filename             |
+-----------------------------------------------------------------------+
|SU2 restart                        |solution.dat                       |
|SU2 ASCII restart                  |solution.csv                       |
|Paraview                           |flow.vtu                           |
|Tecplot ASCII                      |flow.dat                           |
|Paraview surface                   |surface_flow.vtu                   |
+-----------------------------------------------------------------------+
+------------------------------------------------------------------------------------------+
|  Inner_Iter|    rms[Rho]|Nonphysical_|Linear_Solve|   LinSolRes|    Avg_Mach|   Avg_Press|
+------------------------------------------------------------------------------------------+
|        8050|    0.820613|           3|           2|   -7.049497|  3.5561e-01  3.5561e-01|  1.2096e+05  1.2096e+05|
|        8100|    0.820630|           3|           2|   -7.056682|  3.5564e-01  3.5564e-01|  1.2096e+05  1.2096e+05|
|        8150|    0.820638|           3|           2|   -7.057991|  3.5563e-01  3.5563e-01|  1.2096e+05  1.2096e+05|
|        8200|    0.820653|           3|           2|   -7.062204|  3.5567e-01  3.5567e-01|  1.2096e+05  1.2096e+05|
|        8250|    0.820662|           3|           2|   -7.074889|  3.5562e-01  3.5562e-01|  1.2096e+05  1.2096e+05|
|        8300|    0.820676|           3|           2|   -7.081361|  3.5563e-01  3.5563e-01|  1.2096e+05  1.2096e+05|
|        8350|    0.820688|           3|           2|   -7.083220|  3.5576e-01  3.5576e-01|  1.2097e+05  1.2097e+05|
|        8400|    0.820701|           3|           2|   -7.089582|  3.5566e-01  3.5566e-01|  1.2096e+05  1.2096e+05|
|        8450|    0.820710|           3|           2|   -7.100255|  3.5572e-01  3.5572e-01|  1.2097e+05  1.2097e+05|
|        8500|    0.820724|           3|           2|   -7.102045|  3.5564e-01  3.5564e-01|  1.2096e+05  1.2096e+05|
|        8550|    0.820732|           3|           2|   -7.109275|  3.5571e-01  3.5571e-01|  1.2097e+05  1.2097e+05|
|        8600|    0.820746|           3|           2|   -7.122593|  3.5568e-01  3.5568e-01|  1.2096e+05  1.2096e+05|
|        8650|    0.820752|           3|           2|   -7.130312|  3.5568e-01  3.5568e-01|  1.2096e+05  1.2096e+05|
|        8700|    0.820768|           3|           2|   -7.128679|  3.5564e-01  3.5564e-01|  1.2096e+05  1.2096e+05|
|        8750|    0.820782|           3|           2|   -7.141039|  3.5565e-01  3.5565e-01|  1.2096e+05  1.2096e+05|
|        8800|    0.820787|           3|           2|   -7.148876|  3.5563e-01  3.5563e-01|  1.2096e+05  1.2096e+05|
|        8850|    0.820798|           3|           2|   -7.163372|  3.5568e-01  3.5568e-01|  1.2096e+05  1.2096e+05|
|        8900|    0.820805|           3|           2|   -7.171581|  3.5565e-01  3.5565e-01|  1.2096e+05  1.2096e+05|
|        8950|    0.820825|           3|           2|   -7.171206|  3.5562e-01  3.5562e-01|  1.2096e+05  1.2096e+05|
|        9000|    0.820824|           3|           2|   -7.179215|  3.5566e-01  3.5566e-01|  1.2096e+05  1.2096e+05|
+-----------------------------------------------------------------------+
|        File Writing Summary       |              Filename             |
+-----------------------------------------------------------------------+
|SU2 restart                        |solution.dat                       |
|SU2 ASCII restart                  |solution.csv                       |
|Paraview                           |flow.vtu                           |
|Tecplot ASCII                      |flow.dat                           |
|Paraview surface                   |surface_flow.vtu                   |
+-----------------------------------------------------------------------+
+------------------------------------------------------------------------------------------+
|  Inner_Iter|    rms[Rho]|Nonphysical_|Linear_Solve|   LinSolRes|    Avg_Mach|   Avg_Press|
+------------------------------------------------------------------------------------------+
|        9050|    0.820834|           3|           2|   -7.184080|  3.5568e-01  3.5568e-01|  1.2096e+05  1.2096e+05|
|        9100|    0.820836|           3|           2|   -7.197075|  3.5575e-01  3.5575e-01|  1.2097e+05  1.2097e+05|
|        9150|    0.820848|           3|           2|   -7.201515|  3.5576e-01  3.5576e-01|  1.2097e+05  1.2097e+05|
|        9200|    0.820856|           3|           2|   -7.209401|  3.5576e-01  3.5576e-01|  1.2097e+05  1.2097e+05|
|        9250|    0.820861|           3|           2|   -7.226902|  3.5566e-01  3.5566e-01|  1.2096e+05  1.2096e+05|
|        9300|    0.820872|           3|           2|   -7.234362|  3.5567e-01  3.5567e-01|  1.2096e+05  1.2096e+05|
|        9350|    0.820878|           3|           2|   -7.245016|  3.5570e-01  3.5570e-01|  1.2096e+05  1.2096e+05|
|        9400|    0.820891|           3|           2|   -7.241042|  3.5571e-01  3.5571e-01|  1.2096e+05  1.2096e+05|
|        9450|    0.820893|           3|           2|   -7.247826|  3.5568e-01  3.5568e-01|  1.2096e+05  1.2096e+05|
|        9500|    0.820904|           3|           2|   -7.250123|  3.5566e-01  3.5566e-01|  1.2096e+05  1.2096e+05|
|        9550|    0.820911|           3|           2|   -7.260756|  3.5560e-01  3.5560e-01|  1.2095e+05  1.2095e+05|
|        9600|    0.820915|           3|           2|   -7.275308|  3.5573e-01  3.5573e-01|  1.2097e+05  1.2097e+05|
|        9650|    0.820921|           3|           2|   -7.286382|  3.5563e-01  3.5563e-01|  1.2096e+05  1.2096e+05|
|        9700|    0.820929|           3|           2|   -7.283087|  3.5579e-01  3.5579e-01|  1.2097e+05  1.2097e+05|
|        9750|    0.820936|           3|           2|   -7.281019|  3.5572e-01  3.5572e-01|  1.2096e+05  1.2096e+05|
|        9800|    0.820945|           3|           2|   -7.280916|  3.5578e-01  3.5578e-01|  1.2097e+05  1.2097e+05|
|        9850|    0.820953|           3|           2|   -7.295374|  3.5571e-01  3.5571e-01|  1.2096e+05  1.2096e+05|
|        9900|    0.820958|           3|           2|   -7.310169|  3.5564e-01  3.5564e-01|  1.2096e+05  1.2096e+05|
|        9950|    0.820965|           3|           2|   -7.321096|  3.5568e-01  3.5568e-01|  1.2096e+05  1.2096e+05|
|        9999|    0.820970|           3|           2|   -7.310697|  3.5565e-01  3.5565e-01|  1.2096e+05  1.2096e+05|

----------------------------- Solver Exit -------------------------------

Maximum number of iterations reached (ITER = 10000) before convergence.
+-----------------------------------------------------------------------+
|      Convergence Field     |     Value    |   Criterion  |  Converged |
+-----------------------------------------------------------------------+
|                    rms[Rho]|       0.82097|         < -20|          No|
+-----------------------------------------------------------------------+
-------------------------------------------------------------------------
+-----------------------------------------------------------------------+
|        File Writing Summary       |              Filename             |
+-----------------------------------------------------------------------+
|SU2 restart                        |solution.dat                       |
|SU2 ASCII restart                  |solution.csv                       |
|Paraview                           |flow.vtu                           |
|Tecplot ASCII                      |flow.dat                           |
|Paraview surface                   |surface_flow.vtu                   |
+-----------------------------------------------------------------------+
Warning: there are 3 non-physical points in the solution.

------------------------- Solver Postprocessing -------------------------
Deleted CNumerics container.
Deleted CIntegration container.
Deleted CSolver container.
Deleted CIteration container.
Deleted CInterface container.
Deleted CGeometry container.
Deleted CFreeFormDefBox class.
Deleted CSurfaceMovement class.
Deleted CVolumetricMovement class.
Deleted CConfig container.
Deleted nInst container.
Deleted COutput class.
-------------------------------------------------------------------------

------------------------- Exit Success (SU2_CFD) ------------------------



=======================================================================
=======================================================================
                       PREPROCESSING - LEVEL 1
 
  -------------------------------------------------------------------
    NODE-PAIR CODE   -   PREPROCESSING PHASE
  -------------------------------------------------------------------
    Department of Aerospace Engineering - Politecnico di Milano
    authors: Alberto Guardone, Marco Fossati
 
    Warning: Check the status of file CORNERS.grid_name
 
 
    Domain nodes:         1580
    Boundary nodes:          508
    Domain elements:         2869
    Boundary elements:          254
 
    Generating node-pairs...
    I have found         4518  node-pairs in the domain
    I have found          254  node-pairs in the boundary
 
    Generating metric quantities...
    Domain finite element metrics...
    Domain finite volumes metrics...
    Boundary metrics...
 
    Checking metric consistency...
      FEM maximum eta residual on DOMAIN points --->  4.2422887935346891E-29
      - on domain node           38
      - of coordinates    115.762810035904        14.7551638472843     
      FEM maximum eta residual on BOUNDARY points --->  3.9750712341391344E-28
      - on boundary node          174    (domain             2 )
      - of coordinates    115.652200000000        14.7551638524178     
 
      Domain area (cell) =   40614.3794499095     
      Domain area (mass,mass_ii) =   40614.3794499094     
      Boundary closure (xi) =  1.121358231308039E-013
      Boundary closure (chi) =  9.281491046187747E-015
 
      FVM maximum eta residual on DOMAIN points --->  2.5160613517247146E-32
      - on domain node         1363
      - of coordinates    2.12122479085312       0.911482807488874     
      FVM maximum eta residual on BOUNDARY points --->  4.0422515446131590E-28
      - on boundary node          172    (domain             1 )
      - of coordinates    115.652200000000        13.7382300000000     
 
    done
 
    Generating rotation matrices...
    done
 
    Saving...
    node-pairs...
    metric quantities...
    done
 
    Elapsed time   0.1720E+00 s
 


=======================================================================
=======================================================================
                     MESH ADAPTATION - LEVEL 1
 
  -------------------------------------------------------------------
    DARWIN
  -------------------------------------------------------------------
    CFD Laboratory - McGill University
    2009-2012 - Marco Fossati
    Department of Aerospace Engineering - Politecnico di Milano
    2003-2009 - Alberto Guardone, Marco Fossati
 
    Reading grid 0 ...
    Reading SU2 solution
    - equations:  Euler
    - thermodynamics:  not used

    Adapt grid from level 0 to level 1
    Averaging error...
    Quality enforcement...
    - edges marked for quality enforcement:       27
 
    Grid 1 nodes     2411 element     4466
 
    Postprocessing
    - errors.INL.plt
    - admesh.INL.plt
    - admesh.INL.su2
 


=======================================================================
=======================================================================
                            SU2 - LEVEL 1



MPI - REPORT BINDINGS:
[minion09:14357] MCW rank 1 bound to socket 1[core 6[hwt 0-1]]: [../../../../../..][BB/../../../../..]
[minion09:14357] MCW rank 2 bound to socket 0[core 1[hwt 0-1]]: [../BB/../../../..][../../../../../..]
[minion09:14357] MCW rank 3 bound to socket 1[core 7[hwt 0-1]]: [../../../../../..][../BB/../../../..]
[minion09:14357] MCW rank 4 bound to socket 0[core 2[hwt 0-1]]: [../../BB/../../..][../../../../../..]
[minion09:14357] MCW rank 5 bound to socket 1[core 8[hwt 0-1]]: [../../../../../..][../../BB/../../..]
[minion09:14357] MCW rank 6 bound to socket 0[core 3[hwt 0-1]]: [../../../BB/../..][../../../../../..]
[minion09:14357] MCW rank 7 bound to socket 1[core 9[hwt 0-1]]: [../../../../../..][../../../BB/../..]
[minion09:14357] MCW rank 8 bound to socket 0[core 4[hwt 0-1]]: [../../../../BB/..][../../../../../..]
[minion09:14357] MCW rank 9 bound to socket 1[core 10[hwt 0-1]]: [../../../../../..][../../../../BB/..]
[minion09:14357] MCW rank 10 bound to socket 0[core 5[hwt 0-1]]: [../../../../../BB][../../../../../..]
[minion09:14357] MCW rank 11 bound to socket 1[core 11[hwt 0-1]]: [../../../../../..][../../../../../BB]
[minion09:14357] MCW rank 0 bound to socket 0[core 0[hwt 0-1]]: [BB/../../../../..][../../../../../..]

-------------------------------------------------------------------------
|    ___ _   _ ___                                                      |
|   / __| | | |_  )   Release 7.1.0 "Blackbird"                         |
|   \__ \ |_| |/ /                                                      |
|   |___/\___//___|   Suite (Computational Fluid Dynamics Code)         |
|                                                                       |
-------------------------------------------------------------------------
| SU2 Project Website: https://su2code.github.io                        |
|                                                                       |
| The SU2 Project is maintained by the SU2 Foundation                   |
| (http://su2foundation.org)                                            |
-------------------------------------------------------------------------
| Copyright 2012-2020, SU2 Contributors                                 |
|                                                                       |
| SU2 is free software; you can redistribute it and/or                  |
| modify it under the terms of the GNU Lesser General Public            |
| License as published by the Free Software Foundation; either          |
| version 2.1 of the License, or (at your option) any later version.    |
|                                                                       |
| SU2 is distributed in the hope that it will be useful,                |
| but WITHOUT ANY WARRANTY; without even the implied warranty of        |
| MERCHANTABILITY or FITNESS FOR A PARTICULAR PURPOSE. See the GNU      |
| Lesser General Public License for more details.                       |
|                                                                       |
| You should have received a copy of the GNU Lesser General Public      |
| License along with SU2. If not, see <http://www.gnu.org/licenses/>.   |
-------------------------------------------------------------------------

Parsing config file for zone 0

----------------- Physical Case Definition ( Zone 0 ) -------------------
Compressible Euler equations.
Mach number: 1e-09.
Angle of attack (AoA): 0 deg, and angle of sideslip (AoS): 0 deg.
Reading and writing binary SU2 native restart files.
Read flow solution from: solution_interpolated.dat.
Dimensional simulation.
The reference area is 1 m^2.
The semi-span will be computed using the max y(3D) value.
The reference length is 1 m.
Reference origin for moment evaluation is (0, 0, 0).
Surface(s) where the force coefficients are evaluated: 4.

Surface(s) plotted in the output file: 4.
Surface(s) to be analyzed in detail: 4.
Input mesh file name: admesh.INL.su2

--------------- Space Numerical Integration ( Zone 0 ) ------------------
Roe (with entropy fix = 1) solver for the flow inviscid terms.
Standard Roe without low-dissipation function.
Second order integration in space, with slope limiter.
Venkatakrishnan slope-limiting method, with constant: 0.0001. 
The reference element size is: 1. 
Gradient for upwind reconstruction: unweighted Least-Squares.
Gradient for viscous and source terms: Green-Gauss.

--------------- Time Numerical Integration  ( Zone 0 ) ------------------
Local time stepping (steady state simulation).
Euler implicit method for the flow equations.
FGMRES is used for solving the linear system.
Using a ILU(0) preconditioning.
Convergence criteria of the linear solver: 1e-06.
Max number of linear iterations: 20.
CFL adaptation. Factor down: 0.5, factor up: 1.25,
                lower limit: 0.1, upper limit: 10,
                acceptable linear residual: 0.001.
Courant-Friedrichs-Lewy number:        1

------------------ Convergence Criteria  ( Zone 0 ) ---------------------
Maximum number of solver subiterations: 10000.
Begin convergence monitoring at iteration 10.
Residual minimum value: 1e-20.
Cauchy series min. value: 1e-10.
Number of Cauchy elements: 100.
Begin windowed time average at iteration 0.

-------------------- Output Information ( Zone 0 ) ----------------------
Writing solution files every 1000 iterations.
Writing the convergence history file every 1 inner iterations.
Writing the screen convergence history every 50 inner iterations.
The tabular file format is CSV (.csv).
Convergence history file name: history_2nd.
Forces breakdown file name: forces_breakdown.dat.
Surface file name: surface_flow.
Volume file name: flow.
Restart file name: solution.dat.

------------- Config File Boundary Information ( Zone 0 ) ---------------
+-----------------------------------------------------------------------+
|                        Marker Type|                        Marker Name|
+-----------------------------------------------------------------------+
|                         Euler wall|                                  2|
|                                   |                                  3|
+-----------------------------------------------------------------------+
|                     Symmetry plane|                                  6|
+-----------------------------------------------------------------------+
|                   Riemann boundary|                                  1|
|                                   |                                  4|
|                                   |                                  5|
+-----------------------------------------------------------------------+

-------------------- Output Preprocessing ( Zone 0 ) --------------------
Screen output fields: INNER_ITER, RMS_DENSITY, NONPHYSICAL_POINTS, LINSOL_ITER, LINSOL_RESIDUAL, SURFACE_MACH, SURFACE_STATIC_PRESSURE
History output group(s): ITER, RMS_RES
Convergence field(s): RMS_DENSITY
Warning: No (valid) fields chosen for time convergence monitoring. Time convergence monitoring inactive.
Volume output fields: COORDINATES, SOLUTION, PRIMITIVE

------------------- Geometry Preprocessing ( Zone 0 ) -------------------
Two dimensional problem.
2411 grid points before partitioning.
4466 volume elements before partitioning.
6 surface markers.
36 boundary elements in index 0 (Marker = 1).
66 boundary elements in index 1 (Marker = 2).
41 boundary elements in index 2 (Marker = 3).
53 boundary elements in index 3 (Marker = 4).
10 boundary elements in index 4 (Marker = 5).
94 boundary elements in index 5 (Marker = 6).
Executing the partitioning functions.
Building the graph adjacency structure.
Calling ParMETIS... graph partitioning complete (367 edge cuts).
Distributing ParMETIS coloring.
Rebalancing vertices.
Rebalancing volume element connectivity.
Rebalancing markers and surface elements.
2797 vertices including ghost points. 
4826 interior elements including halo cells. 
4768 triangles.
58 quadrilaterals.
Establishing MPI communication patterns.
Setting point connectivity.
Renumbering points (Reverse Cuthill McKee Ordering).
Recomputing point connectivity.
Setting element connectivity.
Checking the numerical grid orientation.
All volume elements are correctly orientend.
There has been a re-orientation of 318 LINE surface elements.
Identifying edges and vertices.
Setting the control volume structure.
Area of the computational grid: 44969.5.
Searching for the closest normal neighbors to the surfaces.
Storing a mapping from global to local point index.
Compute the surface curvature.
Max K: 2.76921. Mean K: 0.0373356. Standard deviation K: 0.253005.
Checking for periodicity.
Computing mesh quality statistics for the dual control volumes.
+--------------------------------------------------------------+
|           Mesh Quality Metric|        Minimum|        Maximum|
+--------------------------------------------------------------+
|    Orthogonality Angle (deg.)|        50.1129|        89.9005|
|     CV Face Area Aspect Ratio|        1.00032|        27.2909|
|           CV Sub-Volume Ratio|              1|        124.233|
+--------------------------------------------------------------+
Finding max control volume width.
Communicating number of neighbors.
Wetted area = 0 m.
Area projection in the x-plane = 0 m, y-plane = 0 m.
Max. coordinate in the x-direction = -1e+10 m, y-direction = -1e+10 m.
Min. coordinate in the x-direction = 1e+10 m, y-direction = 1e+10 m.
Checking if Euler & Symmetry markers are straight/plane:
Boundary marker 2 is NOT a single straight.
Boundary marker 3 is a single straight.
Boundary marker 6 is a single straight.
Computing wall distances.

-------------------- Solver Preprocessing ( Zone 0 ) --------------------
Inviscid flow: Computing density based on free-stream
temperature and pressure using the ideal gas law.
Force coefficients computed using free-stream values.

-- Models:
+------------------------------------------------------------------------------+
|          Viscosity Model|        Conductivity Model|              Fluid Model|
+------------------------------------------------------------------------------+
|                        -|                         -|                IDEAL_GAS|
+------------------------------------------------------------------------------+
-- Fluid properties:
+------------------------------------------------------------------------------+
|                  Name|    Dim. value|    Ref. value|      Unit|Non-dim. value|
+------------------------------------------------------------------------------+
|          Gas Constant|           297|             1|  N.m/kg.K|           297|
|      Spec. Heat Ratio|             -|             -|         -|           1.4|
+------------------------------------------------------------------------------+
-- Initial and free-stream conditions:
+------------------------------------------------------------------------------+
|                  Name|    Dim. value|    Ref. value|      Unit|Non-dim. value|
+------------------------------------------------------------------------------+
|       Static Pressure|        100000|             1|        Pa|        100000|
|               Density|       1.12233|             1|    kg/m^3|       1.12233|
|           Temperature|           300|             1|         K|           300|
|          Total Energy|        222750|             1|   m^2/s^2|        222750|
|            Velocity-X|   3.53186e-07|             1|       m/s|   3.53186e-07|
|            Velocity-Y|             0|             1|       m/s|             0|
|    Velocity Magnitude|   3.53186e-07|             1|       m/s|   3.53186e-07|
+------------------------------------------------------------------------------+
|           Mach Number|             -|             -|         -|         1e-09|
+------------------------------------------------------------------------------+
Initialize Jacobian structure (Euler). MG level: 0.

------------------- Numerics Preprocessing ( Zone 0 ) -------------------

----------------- Integration Preprocessing ( Zone 0 ) ------------------

------------------- Iteration Preprocessing ( Zone 0 ) ------------------
Euler/Navier-Stokes/RANS fluid iteration.

------------------------------ Begin Solver -----------------------------

Simulation Run using the Single-zone Driver
+------------------------------------------------------------------------------------------+
|  Inner_Iter|    rms[Rho]|Nonphysical_|Linear_Solve|   LinSolRes|    Avg_Mach|   Avg_Press|
+------------------------------------------------------------------------------------------+
|           0|    3.903044|           1|           6|   -6.462603|  3.9220e-01  3.9220e-01|  1.2700e+05  1.2700e+05|
|          50|    2.091628|           2|          14|   -6.175456|  2.0255e-01  2.0255e-01|  1.4750e+05  1.4750e+05|
|         100|    1.766529|           3|          13|   -6.188714|  2.0820e-01  2.0820e-01|  9.6561e+04  9.6561e+04|
|         150|    1.503258|           3|          13|   -6.505077|  8.7732e-02  8.7732e-02|  9.9537e+04  9.9537e+04|
|         200|    1.357940|           3|          12|   -6.170605|  8.0575e-02  8.0575e-02|  9.9479e+04  9.9479e+04|
|         250|    1.329595|           3|          12|   -6.318721|  8.0883e-02  8.0883e-02|  9.9444e+04  9.9444e+04|
|         300|    1.098499|           1|           7|   -6.347626|  7.7060e-02  7.7060e-02|  9.9511e+04  9.9511e+04|
|         350|    1.234591|           1|           8|   -6.207186|  7.7850e-02  7.7850e-02|  9.9478e+04  9.9478e+04|
|         400|    0.901685|           1|           4|   -6.986780|  8.0152e-02  8.0152e-02|  9.9449e+04  9.9449e+04|
|         450|    0.796667|           1|           4|   -7.863721|  7.9051e-02  7.9051e-02|  9.9488e+04  9.9488e+04|
|         500|    0.521664|           1|           3|   -6.043932|  7.8428e-02  7.8428e-02|  9.9498e+04  9.9498e+04|
|         550|    0.518695|           1|           3|   -6.898090|  7.7859e-02  7.7859e-02|  9.9504e+04  9.9504e+04|
|         600|    0.568853|           1|           3|   -6.311082|  7.7599e-02  7.7599e-02|  9.9506e+04  9.9506e+04|
|         650|    0.457836|           1|           3|   -6.481772|  7.7423e-02  7.7423e-02|  9.9506e+04  9.9506e+04|
|         700|    0.431585|           1|           3|   -6.357892|  7.7317e-02  7.7317e-02|  9.9505e+04  9.9505e+04|
|         750|    0.753165|           1|           3|   -6.674356|  7.7263e-02  7.7263e-02|  9.9503e+04  9.9503e+04|
|         800|    0.474754|           1|           3|   -6.791063|  7.7271e-02  7.7271e-02|  9.9500e+04  9.9500e+04|
|         850|    0.608901|           1|           3|   -6.096401|  7.7325e-02  7.7325e-02|  9.9496e+04  9.9496e+04|
|         900|    0.543063|           1|           3|   -6.676962|  7.7422e-02  7.7422e-02|  9.9492e+04  9.9492e+04|
|         950|    0.570654|           1|           3|   -6.090456|  7.7520e-02  7.7520e-02|  9.9491e+04  9.9491e+04|
|        1000|    0.682164|           1|           3|   -6.146370|  7.7576e-02  7.7576e-02|  9.9492e+04  9.9492e+04|
+-----------------------------------------------------------------------+
|        File Writing Summary       |              Filename             |
+-----------------------------------------------------------------------+
|SU2 restart                        |solution.dat                       |
|SU2 ASCII restart                  |solution.csv                       |
|Paraview                           |flow.vtu                           |
|Tecplot ASCII                      |flow.dat                           |
|Paraview surface                   |surface_flow.vtu                   |
+-----------------------------------------------------------------------+
+------------------------------------------------------------------------------------------+
|  Inner_Iter|    rms[Rho]|Nonphysical_|Linear_Solve|   LinSolRes|    Avg_Mach|   Avg_Press|
+------------------------------------------------------------------------------------------+
|        1050|    0.582581|           1|           3|   -6.818874|  7.7592e-02  7.7592e-02|  9.9495e+04  9.9495e+04|
|        1100|    0.481185|           1|           4|   -8.042905|  7.7555e-02  7.7555e-02|  9.9498e+04  9.9498e+04|
|        1150|    0.644076|           1|           3|   -6.772903|  7.7463e-02  7.7463e-02|  9.9502e+04  9.9502e+04|
|        1200|    0.475214|           1|           3|   -6.158648|  7.7328e-02  7.7328e-02|  9.9506e+04  9.9506e+04|
|        1250|    0.564855|           1|           3|   -6.527084|  7.7111e-02  7.7111e-02|  9.9512e+04  9.9512e+04|
|        1300|    0.465861|           1|           3|   -6.167949|  7.6815e-02  7.6815e-02|  9.9519e+04  9.9519e+04|
|        1350|    0.383493|           1|           3|   -6.909086|  7.6448e-02  7.6448e-02|  9.9526e+04  9.9526e+04|
|        1400|    0.476581|           1|           3|   -6.146412|  7.6052e-02  7.6052e-02|  9.9532e+04  9.9532e+04|
|        1450|    0.480829|           1|           3|   -6.633166|  7.5653e-02  7.5653e-02|  9.9538e+04  9.9538e+04|
|        1500|    0.650589|           1|           3|   -6.563795|  7.5325e-02  7.5325e-02|  9.9542e+04  9.9542e+04|
|        1550|    0.503139|           1|           3|   -6.741191|  7.5094e-02  7.5094e-02|  9.9543e+04  9.9543e+04|
|        1600|    0.540918|           1|           3|   -6.883728|  7.4985e-02  7.4985e-02|  9.9542e+04  9.9542e+04|
|        1650|    0.601593|           1|           3|   -6.390432|  7.4999e-02  7.4999e-02|  9.9538e+04  9.9538e+04|
|        1700|    0.432656|           1|           3|   -6.482754|  7.5126e-02  7.5126e-02|  9.9533e+04  9.9533e+04|
|        1750|    0.514898|           1|           3|   -6.594876|  7.5364e-02  7.5364e-02|  9.9526e+04  9.9526e+04|
|        1800|    0.656815|           1|           3|   -6.230613|  7.5674e-02  7.5674e-02|  9.9519e+04  9.9519e+04|
|        1850|    0.620170|           1|           3|   -6.680835|  7.6044e-02  7.6044e-02|  9.9513e+04  9.9513e+04|
|        1900|    0.477292|           1|           3|   -6.351854|  7.6422e-02  7.6422e-02|  9.9509e+04  9.9509e+04|
|        1950|    0.499082|           1|           3|   -6.149861|  7.6785e-02  7.6785e-02|  9.9505e+04  9.9505e+04|
|        2000|    0.448892|           1|           3|   -6.157423|  7.7088e-02  7.7088e-02|  9.9501e+04  9.9501e+04|
+-----------------------------------------------------------------------+
|        File Writing Summary       |              Filename             |
+-----------------------------------------------------------------------+
|SU2 restart                        |solution.dat                       |
|SU2 ASCII restart                  |solution.csv                       |
|Paraview                           |flow.vtu                           |
|Tecplot ASCII                      |flow.dat                           |
|Paraview surface                   |surface_flow.vtu                   |
+-----------------------------------------------------------------------+
+------------------------------------------------------------------------------------------+
|  Inner_Iter|    rms[Rho]|Nonphysical_|Linear_Solve|   LinSolRes|    Avg_Mach|   Avg_Press|
+------------------------------------------------------------------------------------------+
|        2050|    0.463159|           1|           3|   -6.917715|  7.7333e-02  7.7333e-02|  9.9499e+04  9.9499e+04|
|        2100|    0.474518|           1|           3|   -6.079600|  7.7494e-02  7.7494e-02|  9.9499e+04  9.9499e+04|
|        2150|    0.635761|           1|           3|   -6.412530|  7.7587e-02  7.7587e-02|  9.9500e+04  9.9500e+04|
|        2200|    0.426645|           1|           3|   -6.290826|  7.7611e-02  7.7611e-02|  9.9504e+04  9.9504e+04|
|        2250|    0.565327|           1|           3|   -6.871667|  7.7567e-02  7.7567e-02|  9.9507e+04  9.9507e+04|
|        2300|    0.476824|           1|           3|   -6.502716|  7.7465e-02  7.7465e-02|  9.9510e+04  9.9510e+04|
|        2350|    0.476706|           1|           3|   -6.341853|  7.7334e-02  7.7334e-02|  9.9511e+04  9.9511e+04|
|        2400|    0.460073|           1|           3|   -6.138123|  7.7206e-02  7.7206e-02|  9.9512e+04  9.9512e+04|
|        2450|    0.733840|           1|           3|   -6.377248|  7.7105e-02  7.7105e-02|  9.9512e+04  9.9512e+04|
|        2500|    0.518951|           1|           3|   -6.166209|  7.7064e-02  7.7064e-02|  9.9510e+04  9.9510e+04|
|        2550|    0.526748|           1|           3|   -6.084502|  7.7093e-02  7.7093e-02|  9.9507e+04  9.9507e+04|
|        2600|    0.522920|           1|           3|   -6.079618|  7.7213e-02  7.7213e-02|  9.9501e+04  9.9501e+04|
|        2650|    0.511735|           1|           3|   -6.204072|  7.7413e-02  7.7413e-02|  9.9497e+04  9.9497e+04|
|        2700|    0.552106|           1|           3|   -6.368978|  7.7677e-02  7.7677e-02|  9.9492e+04  9.9492e+04|
|        2750|    0.535801|           1|           3|   -6.499915|  7.7985e-02  7.7985e-02|  9.9488e+04  9.9488e+04|
|        2800|    0.559837|           1|           3|   -6.866339|  7.8288e-02  7.8288e-02|  9.9483e+04  9.9483e+04|
|        2850|    0.553599|           1|           3|   -6.116004|  7.8567e-02  7.8567e-02|  9.9479e+04  9.9479e+04|
|        2900|    0.580168|           1|           3|   -6.387448|  7.8794e-02  7.8794e-02|  9.9477e+04  9.9477e+04|
|        2950|    0.493191|           1|           3|   -6.820255|  7.8943e-02  7.8943e-02|  9.9476e+04  9.9476e+04|
|        3000|    0.748400|           1|           3|   -6.969571|  7.9000e-02  7.9000e-02|  9.9477e+04  9.9477e+04|
+-----------------------------------------------------------------------+
|        File Writing Summary       |              Filename             |
+-----------------------------------------------------------------------+
|SU2 restart                        |solution.dat                       |
|SU2 ASCII restart                  |solution.csv                       |
|Paraview                           |flow.vtu                           |
|Tecplot ASCII                      |flow.dat                           |
|Paraview surface                   |surface_flow.vtu                   |
+-----------------------------------------------------------------------+
+------------------------------------------------------------------------------------------+
|  Inner_Iter|    rms[Rho]|Nonphysical_|Linear_Solve|   LinSolRes|    Avg_Mach|   Avg_Press|
+------------------------------------------------------------------------------------------+
|        3050|    0.444665|           1|           3|   -6.905665|  7.8970e-02  7.8970e-02|  9.9480e+04  9.9480e+04|
|        3100|    0.701747|           1|           3|   -6.261840|  7.8864e-02  7.8864e-02|  9.9484e+04  9.9484e+04|
|        3150|    0.601905|           1|           3|   -6.581813|  7.8685e-02  7.8685e-02|  9.9490e+04  9.9490e+04|
|        3200|    0.489815|           1|           3|   -6.049275|  7.8442e-02  7.8442e-02|  9.9495e+04  9.9495e+04|
|        3250|    0.492182|           1|           3|   -6.917886|  7.8174e-02  7.8174e-02|  9.9499e+04  9.9499e+04|
|        3300|    0.428249|           1|           3|   -6.689587|  7.7890e-02  7.7890e-02|  9.9503e+04  9.9503e+04|
|        3350|    0.590291|           1|           3|   -6.987411|  7.7640e-02  7.7640e-02|  9.9505e+04  9.9505e+04|
|        3400|    0.489480|           1|           3|   -6.081592|  7.7435e-02  7.7435e-02|  9.9505e+04  9.9505e+04|
|        3450|    0.621527|           1|           3|   -6.493293|  7.7282e-02  7.7282e-02|  9.9504e+04  9.9504e+04|
|        3500|    0.465690|           1|           3|   -6.345671|  7.7198e-02  7.7198e-02|  9.9502e+04  9.9502e+04|
|        3550|    0.498938|           1|           3|   -6.337893|  7.7190e-02  7.7190e-02|  9.9500e+04  9.9500e+04|
|        3600|    0.493260|           1|           3|   -6.638418|  7.7250e-02  7.7250e-02|  9.9496e+04  9.9496e+04|
|        3650|    0.470874|           1|           4|   -8.405127|  7.7376e-02  7.7376e-02|  9.9493e+04  9.9493e+04|
|        3700|    0.452030|           1|           3|   -6.157337|  7.7546e-02  7.7546e-02|  9.9491e+04  9.9491e+04|
|        3750|    0.493820|           1|           3|   -6.209315|  7.7731e-02  7.7731e-02|  9.9488e+04  9.9488e+04|
|        3800|    0.621093|           1|           3|   -6.852875|  7.7912e-02  7.7912e-02|  9.9486e+04  9.9486e+04|
|        3850|    0.575559|           1|           3|   -6.163910|  7.8093e-02  7.8093e-02|  9.9484e+04  9.9484e+04|
|        3900|    0.410995|           1|           3|   -6.555305|  7.8243e-02  7.8243e-02|  9.9482e+04  9.9482e+04|
|        3950|    0.554004|           1|           3|   -6.484613|  7.8351e-02  7.8351e-02|  9.9481e+04  9.9481e+04|
|        4000|    0.425568|           1|           3|   -6.161120|  7.8426e-02  7.8426e-02|  9.9481e+04  9.9481e+04|
+-----------------------------------------------------------------------+
|        File Writing Summary       |              Filename             |
+-----------------------------------------------------------------------+
|SU2 restart                        |solution.dat                       |
|SU2 ASCII restart                  |solution.csv                       |
|Paraview                           |flow.vtu                           |
|Tecplot ASCII                      |flow.dat                           |
|Paraview surface                   |surface_flow.vtu                   |
+-----------------------------------------------------------------------+
+------------------------------------------------------------------------------------------+
|  Inner_Iter|    rms[Rho]|Nonphysical_|Linear_Solve|   LinSolRes|    Avg_Mach|   Avg_Press|
+------------------------------------------------------------------------------------------+
|        4050|    0.673184|           1|           3|   -6.213073|  7.8467e-02  7.8467e-02|  9.9481e+04  9.9481e+04|
|        4100|    0.581192|           1|           3|   -6.955996|  7.8482e-02  7.8482e-02|  9.9483e+04  9.9483e+04|
|        4150|    0.487629|           1|           3|   -6.461201|  7.8477e-02  7.8477e-02|  9.9484e+04  9.9484e+04|
|        4200|    0.517464|           1|           3|   -6.113570|  7.8455e-02  7.8455e-02|  9.9486e+04  9.9486e+04|
|        4250|    0.594178|           1|           3|   -6.137578|  7.8423e-02  7.8423e-02|  9.9488e+04  9.9488e+04|
|        4300|    0.487810|           1|           3|   -6.713985|  7.8399e-02  7.8399e-02|  9.9488e+04  9.9488e+04|
|        4350|    0.841557|           1|           3|   -6.324786|  7.8384e-02  7.8384e-02|  9.9489e+04  9.9489e+04|
|        4400|    0.490846|           1|           3|   -6.555744|  7.8379e-02  7.8379e-02|  9.9489e+04  9.9489e+04|
|        4450|    0.519613|           1|           3|   -6.335845|  7.8399e-02  7.8399e-02|  9.9488e+04  9.9488e+04|
|        4500|    0.663882|           1|           3|   -6.884694|  7.8434e-02  7.8434e-02|  9.9488e+04  9.9488e+04|
|        4550|    0.652931|           1|           4|   -7.721548|  7.8486e-02  7.8486e-02|  9.9487e+04  9.9487e+04|
|        4600|    0.643598|           1|           3|   -6.257729|  7.8552e-02  7.8552e-02|  9.9486e+04  9.9486e+04|
|        4650|    0.739754|           1|           3|   -6.941950|  7.8629e-02  7.8629e-02|  9.9485e+04  9.9485e+04|
|        4700|    0.451371|           1|           4|   -8.386604|  7.8713e-02  7.8713e-02|  9.9484e+04  9.9484e+04|
|        4750|    0.494052|           1|           3|   -6.948255|  7.8785e-02  7.8785e-02|  9.9483e+04  9.9483e+04|
|        4800|    0.607880|           1|           3|   -6.521176|  7.8843e-02  7.8843e-02|  9.9482e+04  9.9482e+04|
|        4850|    0.524586|           1|           3|   -6.060654|  7.8882e-02  7.8882e-02|  9.9482e+04  9.9482e+04|
|        4900|    0.839596|           1|           3|   -6.964853|  7.8904e-02  7.8904e-02|  9.9482e+04  9.9482e+04|
|        4950|    0.490944|           1|           3|   -6.414974|  7.8907e-02  7.8907e-02|  9.9481e+04  9.9481e+04|
|        5000|    0.527179|           1|           3|   -6.266129|  7.8891e-02  7.8891e-02|  9.9481e+04  9.9481e+04|
+-----------------------------------------------------------------------+
|        File Writing Summary       |              Filename             |
+-----------------------------------------------------------------------+
|SU2 restart                        |solution.dat                       |
|SU2 ASCII restart                  |solution.csv                       |
|Paraview                           |flow.vtu                           |
|Tecplot ASCII                      |flow.dat                           |
|Paraview surface                   |surface_flow.vtu                   |
+-----------------------------------------------------------------------+
+------------------------------------------------------------------------------------------+
|  Inner_Iter|    rms[Rho]|Nonphysical_|Linear_Solve|   LinSolRes|    Avg_Mach|   Avg_Press|
+------------------------------------------------------------------------------------------+
|        5050|    0.614411|           1|           3|   -6.508690|  7.8854e-02  7.8854e-02|  9.9482e+04  9.9482e+04|
|        5100|    0.526134|           1|           3|   -6.193613|  7.8798e-02  7.8798e-02|  9.9482e+04  9.9482e+04|
|        5150|    0.554590|           1|           3|   -6.493397|  7.8719e-02  7.8719e-02|  9.9483e+04  9.9483e+04|
|        5200|    0.424030|           1|           3|   -6.154012|  7.8624e-02  7.8624e-02|  9.9483e+04  9.9483e+04|
|        5250|    0.518826|           1|           3|   -6.113757|  7.8518e-02  7.8518e-02|  9.9484e+04  9.9484e+04|
|        5300|    0.811817|           1|           3|   -6.945609|  7.8400e-02  7.8400e-02|  9.9486e+04  9.9486e+04|
|        5350|    0.514015|           1|           3|   -6.170869|  7.8271e-02  7.8271e-02|  9.9487e+04  9.9487e+04|
[...]
|        1750|    1.103139|           2|           3|   -6.335318|  1.0242e-01  1.0242e-01|  1.0588e+05  1.0588e+05|
|        1800|    1.109626|           2|           3|   -6.335642|  1.0179e-01  1.0179e-01|  1.0612e+05  1.0612e+05|
|        1850|    1.115929|           2|           3|   -6.341022|  1.0156e-01  1.0156e-01|  1.0637e+05  1.0637e+05|
|        1900|    1.122616|           2|           3|   -6.351166|  1.0174e-01  1.0174e-01|  1.0658e+05  1.0658e+05|
|        1950|    1.128172|           2|           3|   -6.363554|  1.0204e-01  1.0204e-01|  1.0673e+05  1.0673e+05|
|        2000|    1.133242|           2|           3|   -6.377507|  1.0251e-01  1.0251e-01|  1.0688e+05  1.0688e+05|
+-----------------------------------------------------------------------+
|        File Writing Summary       |              Filename             |
+-----------------------------------------------------------------------+
|SU2 restart                        |solution.dat                       |
|SU2 ASCII restart                  |solution.csv                       |
|Paraview                           |flow.vtu                           |
|Tecplot ASCII                      |flow.dat                           |
|Paraview surface                   |surface_flow.vtu                   |
+-----------------------------------------------------------------------+
+------------------------------------------------------------------------------------------+
|  Inner_Iter|    rms[Rho]|Nonphysical_|Linear_Solve|   LinSolRes|    Avg_Mach|   Avg_Press|
+------------------------------------------------------------------------------------------+
|        2050|    1.139087|           2|           3|   -6.380627|  1.0318e-01  1.0318e-01|  1.0697e+05  1.0697e+05|
|        2100|    1.145070|           2|           3|   -6.393536|  1.0392e-01  1.0392e-01|  1.0697e+05  1.0697e+05|
|        2150|    1.151774|           2|           3|   -6.402246|  1.0454e-01  1.0454e-01|  1.0684e+05  1.0684e+05|
|        2200|    1.157418|           2|           3|   -6.399176|  1.0446e-01  1.0446e-01|  1.0661e+05  1.0661e+05|
|        2250|    1.162101|           2|           3|   -6.397146|  1.0403e-01  1.0403e-01|  1.0629e+05  1.0629e+05|
|        2300|    1.165788|           2|           3|   -6.390564|  1.0352e-01  1.0352e-01|  1.0593e+05  1.0593e+05|
|        2350|    1.167364|           2|           3|   -6.381955|  1.0297e-01  1.0297e-01|  1.0555e+05  1.0555e+05|
|        2400|    1.167808|           2|           3|   -6.381292|  1.0277e-01  1.0277e-01|  1.0522e+05  1.0522e+05|
|        2450|    1.166843|           2|           3|   -6.369278|  1.0285e-01  1.0285e-01|  1.0487e+05  1.0487e+05|
|        2500|    1.164753|           2|           3|   -6.354099|  1.0285e-01  1.0285e-01|  1.0452e+05  1.0452e+05|
|        2550|    1.161943|           2|           3|   -6.338317|  1.0320e-01  1.0320e-01|  1.0415e+05  1.0415e+05|
|        2600|    1.159219|           2|           3|   -6.320789|  1.0443e-01  1.0443e-01|  1.0377e+05  1.0377e+05|
|        2650|    1.157502|           2|           3|   -6.316050|  1.0631e-01  1.0631e-01|  1.0338e+05  1.0338e+05|
|        2700|    1.155648|           2|           3|   -6.313630|  1.0895e-01  1.0895e-01|  1.0295e+05  1.0295e+05|
|        2750|    1.153393|           2|           3|   -6.308206|  1.1263e-01  1.1263e-01|  1.0250e+05  1.0250e+05|
|        2800|    1.152241|           2|           3|   -6.308553|  1.1773e-01  1.1773e-01|  1.0208e+05  1.0208e+05|
|        2850|    1.152208|           2|           3|   -6.295322|  1.2382e-01  1.2382e-01|  1.0174e+05  1.0174e+05|
|        2900|    1.152943|           2|           3|   -6.288984|  1.3078e-01  1.3078e-01|  1.0144e+05  1.0144e+05|
|        2950|    1.152464|           2|           3|   -6.290849|  1.3776e-01  1.3776e-01|  1.0114e+05  1.0114e+05|
|        3000|    1.153248|           2|           3|   -6.300727|  1.4535e-01  1.4535e-01|  1.0085e+05  1.0085e+05|
+-----------------------------------------------------------------------+
|        File Writing Summary       |              Filename             |
+-----------------------------------------------------------------------+
|SU2 restart                        |solution.dat                       |
|SU2 ASCII restart                  |solution.csv                       |
|Paraview                           |flow.vtu                           |
|Tecplot ASCII                      |flow.dat                           |
|Paraview surface                   |surface_flow.vtu                   |
+-----------------------------------------------------------------------+
+------------------------------------------------------------------------------------------+
|  Inner_Iter|    rms[Rho]|Nonphysical_|Linear_Solve|   LinSolRes|    Avg_Mach|   Avg_Press|
+------------------------------------------------------------------------------------------+
|        3050|    1.154093|           2|           3|   -6.304182|  1.5359e-01  1.5359e-01|  1.0050e+05  1.0050e+05|
|        3100|    1.155174|           2|           3|   -6.297422|  1.6165e-01  1.6165e-01|  1.0023e+05  1.0023e+05|
|        3150|    1.157494|           2|           3|   -6.288681|  1.7076e-01  1.7076e-01|  9.9894e+04  9.9894e+04|
|        3200|    1.160872|           2|           3|   -6.278747|  1.8077e-01  1.8077e-01|  9.9502e+04  9.9502e+04|
|        3250|    1.164509|           2|           3|   -6.277835|  1.8967e-01  1.8967e-01|  9.9185e+04  9.9185e+04|
|        3300|    1.168569|           2|           3|   -6.267350|  1.9831e-01  1.9831e-01|  9.8951e+04  9.8951e+04|
|        3350|    1.173179|           2|           3|   -6.262783|  2.0569e-01  2.0569e-01|  9.8765e+04  9.8765e+04|
|        3400|    1.177459|           2|           3|   -6.253831|  2.1196e-01  2.1196e-01|  9.8585e+04  9.8585e+04|
|        3450|    1.181817|           2|           3|   -6.237511|  2.1635e-01  2.1635e-01|  9.8528e+04  9.8528e+04|
|        3500|    1.187145|           2|           3|   -6.217966|  2.1929e-01  2.1929e-01|  9.8609e+04  9.8609e+04|
|        3550|    1.191911|           2|           3|   -6.195920|  2.2205e-01  2.2205e-01|  9.8622e+04  9.8622e+04|
|        3600|    1.196746|           2|           3|   -6.171091|  2.2391e-01  2.2391e-01|  9.8649e+04  9.8649e+04|
|        3650|    1.201554|           2|           3|   -6.156104|  2.2608e-01  2.2608e-01|  9.8689e+04  9.8689e+04|
|        3700|    1.204749|           2|           3|   -6.138204|  2.2821e-01  2.2821e-01|  9.8769e+04  9.8769e+04|
|        3750|    1.206260|           2|           3|   -6.139882|  2.2904e-01  2.2904e-01|  9.9092e+04  9.9092e+04|
|        3800|    1.207396|           2|           3|   -6.158662|  2.2965e-01  2.2965e-01|  9.9527e+04  9.9527e+04|
|        3850|    1.207570|           2|           3|   -6.181404|  2.3083e-01  2.3083e-01|  1.0000e+05  1.0000e+05|
|        3900|    1.208526|           2|           3|   -6.212038|  2.3319e-01  2.3319e-01|  1.0051e+05  1.0051e+05|
|        3950|    1.209748|           2|           3|   -6.228037|  2.3671e-01  2.3671e-01|  1.0109e+05  1.0109e+05|
|        4000|    1.211615|           2|           3|   -6.259078|  2.4110e-01  2.4110e-01|  1.0169e+05  1.0169e+05|
+-----------------------------------------------------------------------+
|        File Writing Summary       |              Filename             |
+-----------------------------------------------------------------------+
|SU2 restart                        |solution.dat                       |
|SU2 ASCII restart                  |solution.csv                       |
|Paraview                           |flow.vtu                           |
|Tecplot ASCII                      |flow.dat                           |
|Paraview surface                   |surface_flow.vtu                   |
+-----------------------------------------------------------------------+
+------------------------------------------------------------------------------------------+
|  Inner_Iter|    rms[Rho]|Nonphysical_|Linear_Solve|   LinSolRes|    Avg_Mach|   Avg_Press|
+------------------------------------------------------------------------------------------+
|        4050|    1.214054|           2|           3|   -6.281296|  2.4612e-01  2.4612e-01|  1.0240e+05  1.0240e+05|
|        4100|    1.214958|           2|           3|   -6.282938|  2.5064e-01  2.5064e-01|  1.0328e+05  1.0328e+05|
|        4150|    1.215777|           2|           3|   -6.273775|  2.5482e-01  2.5482e-01|  1.0408e+05  1.0408e+05|
|        4200|    1.216576|           2|           3|   -6.261721|  2.5955e-01  2.5955e-01|  1.0467e+05  1.0467e+05|
|        4250|    1.217620|           2|           3|   -6.258217|  2.6454e-01  2.6454e-01|  1.0523e+05  1.0523e+05|
|        4300|    1.219357|           2|           3|   -6.255859|  2.7032e-01  2.7032e-01|  1.0599e+05  1.0599e+05|
|        4350|    1.221515|           2|           3|   -6.242973|  2.7635e-01  2.7635e-01|  1.0644e+05  1.0644e+05|
|        4400|    1.227505|           2|           3|   -6.227240|  2.8186e-01  2.8186e-01|  1.0662e+05  1.0662e+05|
|        4450|    1.234531|           2|           3|   -6.216250|  2.8515e-01  2.8515e-01|  1.0692e+05  1.0692e+05|
|        4500|    1.239893|           2|           3|   -6.218533|  2.8826e-01  2.8826e-01|  1.0683e+05  1.0683e+05|
|        4550|    1.246319|           2|           3|   -6.236249|  2.9226e-01  2.9226e-01|  1.0667e+05  1.0667e+05|
|        4600|    1.253424|           2|           3|   -6.249432|  2.9664e-01  2.9664e-01|  1.0618e+05  1.0618e+05|
|        4650|    1.259699|           2|           3|   -6.247208|  3.0138e-01  3.0138e-01|  1.0542e+05  1.0542e+05|
|        4700|    1.265748|           2|           3|   -6.252733|  3.0655e-01  3.0655e-01|  1.0456e+05  1.0456e+05|
|        4750|    1.272373|           2|           3|   -6.244316|  3.1074e-01  3.1074e-01|  1.0411e+05  1.0411e+05|
|        4800|    1.277559|           2|           3|   -6.226606|  3.1616e-01  3.1616e-01|  1.0373e+05  1.0373e+05|
|        4850|    1.281674|           2|           3|   -6.220849|  3.2211e-01  3.2211e-01|  1.0329e+05  1.0329e+05|
|        4900|    1.286677|           2|           3|   -6.223742|  3.2735e-01  3.2735e-01|  1.0324e+05  1.0324e+05|
|        4950|    1.290882|           2|           3|   -6.232891|  3.3286e-01  3.3286e-01|  1.0388e+05  1.0388e+05|
|        5000|    1.294732|           2|           3|   -6.218705|  3.3833e-01  3.3833e-01|  1.0444e+05  1.0444e+05|
+-----------------------------------------------------------------------+
|        File Writing Summary       |              Filename             |
+-----------------------------------------------------------------------+
|SU2 restart                        |solution.dat                       |
|SU2 ASCII restart                  |solution.csv                       |
|Paraview                           |flow.vtu                           |
|Tecplot ASCII                      |flow.dat                           |
|Paraview surface                   |surface_flow.vtu                   |
+-----------------------------------------------------------------------+
+------------------------------------------------------------------------------------------+
|  Inner_Iter|    rms[Rho]|Nonphysical_|Linear_Solve|   LinSolRes|    Avg_Mach|   Avg_Press|
+------------------------------------------------------------------------------------------+
|        5050|    1.298055|           2|           3|   -6.202333|  3.4301e-01  3.4301e-01|  1.0471e+05  1.0471e+05|
|        5100|    1.299985|           2|           3|   -6.201164|  3.4576e-01  3.4576e-01|  1.0458e+05  1.0458e+05|
|        5150|    1.301228|           2|           3|   -6.202770|  3.4578e-01  3.4578e-01|  1.0440e+05  1.0440e+05|
|        5200|    1.302766|           2|           3|   -6.202566|  3.4398e-01  3.4398e-01|  1.0440e+05  1.0440e+05|
|        5250|    1.303578|           2|           3|   -6.193575|  3.4264e-01  3.4264e-01|  1.0447e+05  1.0447e+05|
|        5300|    1.305156|           2|           3|   -6.189450|  3.4173e-01  3.4173e-01|  1.0462e+05  1.0462e+05|
|        5350|    1.308226|           2|           3|   -6.207199|  3.3935e-01  3.3935e-01|  1.0494e+05  1.0494e+05|
|        5400|    1.311545|           2|           3|   -6.216353|  3.3495e-01  3.3495e-01|  1.0550e+05  1.0550e+05|
|        5450|    1.315530|           2|           3|   -6.209352|  3.2941e-01  3.2941e-01|  1.0633e+05  1.0633e+05|
|        5500|    1.319548|           2|           3|   -6.171102|  3.2516e-01  3.2516e-01|  1.0771e+05  1.0771e+05|
|        5550|    1.321780|           2|           3|   -6.145664|  3.2260e-01  3.2260e-01|  1.0920e+05  1.0920e+05|
|        5600|    1.322838|           2|           3|   -6.136699|  3.2128e-01  3.2128e-01|  1.1052e+05  1.1052e+05|
|        5650|    1.322031|           2|           3|   -6.167692|  3.1879e-01  3.1879e-01|  1.1151e+05  1.1151e+05|
|        5700|    1.320702|           2|           3|   -6.210988|  3.1620e-01  3.1620e-01|  1.1221e+05  1.1221e+05|
|        5750|    1.317902|           2|           3|   -6.223103|  3.1260e-01  3.1260e-01|  1.1242e+05  1.1242e+05|
|        5800|    1.315207|           2|           3|   -6.213779|  3.1037e-01  3.1037e-01|  1.1273e+05  1.1273e+05|
|        5850|    1.312496|           2|           3|   -6.217882|  3.0990e-01  3.0990e-01|  1.1300e+05  1.1300e+05|
|        5900|    1.309322|           2|           3|   -6.246824|  3.0891e-01  3.0891e-01|  1.1318e+05  1.1318e+05|
|        5950|    1.306525|           2|           3|   -6.276315|  3.0858e-01  3.0858e-01|  1.1331e+05  1.1331e+05|
|        6000|    1.303530|           2|           3|   -6.296560|  3.0850e-01  3.0850e-01|  1.1332e+05  1.1332e+05|
+-----------------------------------------------------------------------+
|        File Writing Summary       |              Filename             |
+-----------------------------------------------------------------------+
|SU2 restart                        |solution.dat                       |
|SU2 ASCII restart                  |solution.csv                       |
|Paraview                           |flow.vtu                           |
|Tecplot ASCII                      |flow.dat                           |
|Paraview surface                   |surface_flow.vtu                   |
+-----------------------------------------------------------------------+
+------------------------------------------------------------------------------------------+
|  Inner_Iter|    rms[Rho]|Nonphysical_|Linear_Solve|   LinSolRes|    Avg_Mach|   Avg_Press|
+------------------------------------------------------------------------------------------+
|        6050|    1.300440|           2|           3|   -6.286382|  3.0804e-01  3.0804e-01|  1.1336e+05  1.1336e+05|
|        6100|    1.296516|           2|           3|   -6.267047|  3.0731e-01  3.0731e-01|  1.1350e+05  1.1350e+05|
|        6150|    1.292981|           2|           3|   -6.246882|  3.0581e-01  3.0581e-01|  1.1361e+05  1.1361e+05|
|        6200|    1.289560|           2|           3|   -6.244664|  3.0381e-01  3.0381e-01|  1.1372e+05  1.1372e+05|
|        6250|    1.286437|           2|           3|   -6.236634|  3.0218e-01  3.0218e-01|  1.1381e+05  1.1381e+05|
|        6300|    1.284028|           2|           3|   -6.222599|  3.0016e-01  3.0016e-01|  1.1402e+05  1.1402e+05|
|        6350|    1.282948|           2|           3|   -6.215993|  2.9755e-01  2.9755e-01|  1.1406e+05  1.1406e+05|
|        6400|    1.282132|           2|           3|   -6.212881|  2.9459e-01  2.9459e-01|  1.1392e+05  1.1392e+05|
|        6450|    1.281414|           2|           3|   -6.203982|  2.9125e-01  2.9125e-01|  1.1388e+05  1.1388e+05|
|        6500|    1.281237|           2|           3|   -6.204296|  2.8768e-01  2.8768e-01|  1.1402e+05  1.1402e+05|
|        6550|    1.283123|           2|           3|   -6.198515|  2.8409e-01  2.8409e-01|  1.1465e+05  1.1465e+05|
|        6600|    1.286609|           2|           3|   -6.184455|  2.8134e-01  2.8134e-01|  1.1515e+05  1.1515e+05|
|        6650|    1.291411|           2|           3|   -6.187692|  2.7914e-01  2.7914e-01|  1.1519e+05  1.1519e+05|
|        6700|    1.297076|           2|           3|   -6.214947|  2.7901e-01  2.7901e-01|  1.1515e+05  1.1515e+05|
|        6750|    1.303327|           2|           3|   -6.248406|  2.7902e-01  2.7902e-01|  1.1477e+05  1.1477e+05|
|        6800|    1.310102|           2|           3|   -6.261430|  2.7736e-01  2.7736e-01|  1.1429e+05  1.1429e+05|
|        6850|    1.318199|           2|           3|   -6.272563|  2.7539e-01  2.7539e-01|  1.1359e+05  1.1359e+05|
|        6900|    1.324424|           2|           3|   -6.276731|  2.7599e-01  2.7599e-01|  1.1254e+05  1.1254e+05|
|        6950|    1.329397|           2|           3|   -6.252295|  2.7847e-01  2.7847e-01|  1.1160e+05  1.1160e+05|
|        7000|    1.333704|           2|           3|   -6.217309|  2.7993e-01  2.7993e-01|  1.1047e+05  1.1047e+05|
+-----------------------------------------------------------------------+
|        File Writing Summary       |              Filename             |
+-----------------------------------------------------------------------+
|SU2 restart                        |solution.dat                       |
|SU2 ASCII restart                  |solution.csv                       |
|Paraview                           |flow.vtu                           |
|Tecplot ASCII                      |flow.dat                           |
|Paraview surface                   |surface_flow.vtu                   |
+-----------------------------------------------------------------------+
+------------------------------------------------------------------------------------------+
|  Inner_Iter|    rms[Rho]|Nonphysical_|Linear_Solve|   LinSolRes|    Avg_Mach|   Avg_Press|
+------------------------------------------------------------------------------------------+
|        7050|    1.337358|           2|           3|   -6.193159|  2.8134e-01  2.8134e-01|  1.0904e+05  1.0904e+05|
|        7100|    1.341620|           2|           3|   -6.194668|  2.8442e-01  2.8442e-01|  1.0811e+05  1.0811e+05|
|        7150|    1.345618|           2|           3|   -6.192394|  2.8876e-01  2.8876e-01|  1.0745e+05  1.0745e+05|
|        7200|    1.350363|           2|           3|   -6.178310|  2.9346e-01  2.9346e-01|  1.0680e+05  1.0680e+05|
|        7250|    1.355675|           2|           3|   -6.172341|  2.9517e-01  2.9517e-01|  1.0619e+05  1.0619e+05|
|        7300|    1.361789|           2|           3|   -6.159784|  2.9612e-01  2.9612e-01|  1.0549e+05  1.0549e+05|
|        7350|    1.368425|           2|           3|   -6.162562|  2.9674e-01  2.9674e-01|  1.0460e+05  1.0460e+05|
|        7400|    1.372645|           2|           3|   -6.162333|  2.9475e-01  2.9475e-01|  1.0377e+05  1.0377e+05|
|        7450|    1.376808|           2|           3|   -6.166914|  2.9309e-01  2.9309e-01|  1.0294e+05  1.0294e+05|
|        7500|    1.380002|           2|           3|   -6.203505|  2.9247e-01  2.9247e-01|  1.0208e+05  1.0208e+05|
|        7550|    1.381712|           2|           3|   -6.223736|  2.9079e-01  2.9079e-01|  1.0130e+05  1.0130e+05|
|        7600|    1.384729|           2|           3|   -6.211488|  2.9089e-01  2.9089e-01|  1.0061e+05  1.0061e+05|
|        7650|    1.386672|           2|           3|   -6.241021|  2.9161e-01  2.9161e-01|  9.9958e+04  9.9958e+04|
|        7700|    1.387859|           2|           3|   -6.261935|  2.8961e-01  2.8961e-01|  9.9419e+04  9.9419e+04|
slurmstepd: *** JOB 947954 CANCELLED AT 2022-04-28T07:11:27 *** on minion09
slurmstepd: _slurm_cgroup_destroy: problem deleting step cgroup path /cgroup/freezer/slurm/uid_1052/job_947954/step_batch: Device or resource busy
